2024_89_CemigReconfigurationCases/1_SEsCemig/JFAU07/JFAU07SegmentosMT.dss
new line.TR12115316 bus1=BMT122350764.1.2.3,bus2=BMT175580121.1.2.3,Phases=3,Linecode=CAB103_3_3,Length=0.023039000,Units=km
new line.TR12116084 bus1=BMT149432538.2,bus2=BMT166072221.2,Phases=1,Linecode=CAB202_3_1,Length=0.053165000,Units=km
new line.TR12116085 bus1=BMT166072221.2,bus2=BMT166072222.2,Phases=1,Linecode=CAB202_3_1,Length=0.062612000,Units=km
new line.TR12116086 bus1=BMT166072218.2,bus2=BMT8709068B.2,Phases=1,Linecode=CAB202_3_1,Length=0.036061000,Units=km
new line.TR12116087 bus1=BMT8709068B.2,bus2=BMT166072221.2,Phases=1,Linecode=CAB202_3_1,Length=0.272213000,Units=km
new line.TR12116173 bus1=BMT887409B.1,bus2=BMT887402B.1,Phases=1,Linecode=CAB102_3_1,Length=0.037270000,Units=km
new line.TR12116188 bus1=BMT887493B.1,bus2=BMT175891758.1,Phases=1,Linecode=CAB202_3_1,Length=0.035518000,Units=km
new line.TR12116190 bus1=BMT175891758.1,bus2=BMT175891759.1,Phases=1,Linecode=CAB102_3_1,Length=0.035233000,Units=km
new line.TR12116586 bus1=BMT171970320.1.2.3,bus2=BMT149431770.1.2.3,Phases=3,Linecode=CAB902_4_3,Length=0.000501000,Units=km
new line.TR12116587 bus1=BMT149431862.1.2.3,bus2=BMT149431863.1.2.3,Phases=3,Linecode=CAB902_4_3,Length=0.020597000,Units=km
new line.TR12116742 bus1=BMT149432290.2,bus2=BMT8709577B.2,Phases=1,Linecode=CAB202_3_1,Length=0.071633000,Units=km
new line.TR12116743 bus1=BMT2095203B.2,bus2=BMT8709577B.2,Phases=1,Linecode=CAB202_3_1,Length=0.071633000,Units=km
new line.TR12117063 bus1=BMT523591B.1.2.3,bus2=BMT524221B.1.2.3,Phases=3,Linecode=CAB102_3_3,Length=0.037017000,Units=km
new line.TR12117064 bus1=BMT524221B.1.2.3,bus2=BMT524228B.1.2.3,Phases=3,Linecode=CAB102_3_3,Length=0.037486000,Units=km
new line.TR12117400 bus1=BMT163635790.2,bus2=BMT163635792.2,Phases=1,Linecode=CAB202_3_1,Length=0.154806000,Units=km
new line.TR12127870 bus1=BMT2138470B.2,bus2=BMT8721187B.2,Phases=1,Linecode=CABA06_3_1,Length=0.005001000,Units=km
new line.TR12127871 bus1=BMT3283824B.2,bus2=BMT8721187B.2,Phases=1,Linecode=CABA06_3_1,Length=0.027788000,Units=km
new line.TR12128095 bus1=BMT175921969.1.2.3,bus2=BMT8721267B.1.2.3,Phases=3,Linecode=CABA08_3_3,Length=0.031198000,Units=km
new line.TR12128108 bus1=BMT8721267B.1.2.3,bus2=BMT8721268B.1.2.3,Phases=3,Linecode=CABA08_3_3,Length=0.030889000,Units=km
new line.TR12128109 bus1=BMT8721268B.1.2.3,bus2=BMT175921972.1.2.3,Phases=3,Linecode=CABA08_3_3,Length=0.031702000,Units=km
new line.TR12128111 bus1=BMT175921973.1.2.3,bus2=BMT175921974.1.2.3,Phases=3,Linecode=CABA08_3_3,Length=0.006715000,Units=km
new line.TR12128112 bus1=BMT175921974.1.2.3,bus2=BMT148780139.1.2.3,Phases=3,Linecode=CABA08_3_3,Length=0.011191000,Units=km
new line.TR12128478 bus1=BMT148792431.1.2.3,bus2=BMT804179B.1.2.3,Phases=3,Linecode=CAB103_3_3,Length=0.038022000,Units=km
new line.TR12128479 bus1=BMT804179B.1.2.3,bus2=BMT804158B.1.2.3,Phases=3,Linecode=CAB103_3_3,Length=0.040814000,Units=km
new line.TR12128500 bus1=BMT804158B.1.2.3,bus2=BMT148792433.1.2.3,Phases=3,Linecode=CAB103_3_3,Length=0.022566000,Units=km
new line.TR12128525 bus1=BMT162673242.1.2.3,bus2=BMT8714136B.1.2.3,Phases=3,Linecode=CAB103_3_3,Length=0.035065000,Units=km
new line.TR12128529 bus1=BMT8714136B.1.2.3,bus2=BMT820153B.1.2.3,Phases=3,Linecode=CAB103_3_3,Length=0.012169000,Units=km
new line.TR12130623 bus1=BMT149432318.1.2.3,bus2=BMT8724347B.1.2.3,Phases=3,Linecode=CAB103_3_3,Length=0.037066000,Units=km
new line.TR12130624 bus1=BMT8724347B.1.2.3,bus2=BMT8724349B.1.2.3,Phases=3,Linecode=CAB103_3_3,Length=0.038065000,Units=km
new line.TR12130625 bus1=BMT8724349B.1.2.3,bus2=BMT8724350B.1.2.3,Phases=3,Linecode=CAB103_3_3,Length=0.029625000,Units=km
new line.TR12130626 bus1=BMT8724350B.1.2.3,bus2=BMT8724351B.1.2.3,Phases=3,Linecode=CAB103_3_3,Length=0.028638000,Units=km
new line.TR12130627 bus1=BMT8724351B.1.2.3,bus2=BMT8724353B.1.2.3,Phases=3,Linecode=CAB103_3_3,Length=0.030086000,Units=km
new line.TR12130628 bus1=BMT8724353B.1.2.3,bus2=BMT8724354B.1.2.3,Phases=3,Linecode=CAB103_3_3,Length=0.044557000,Units=km
new line.TR12130629 bus1=BMT8724354B.1.2.3,bus2=BMT8724355B.1.2.3,Phases=3,Linecode=CAB103_3_3,Length=0.029431000,Units=km
new line.TR12130630 bus1=BMT8724355B.1.2.3,bus2=BMT8724356B.1.2.3,Phases=3,Linecode=CAB103_3_3,Length=0.039816000,Units=km
new line.TR12130631 bus1=BMT8724356B.1.2.3,bus2=BMT8724357B.1.2.3,Phases=3,Linecode=CAB103_3_3,Length=0.041436000,Units=km
new line.TR12130632 bus1=BMT8724357B.1.2.3,bus2=BMT8724358B.1.2.3,Phases=3,Linecode=CAB103_3_3,Length=0.032000000,Units=km
new line.TR12130633 bus1=BMT8724358B.1.2.3,bus2=BMT8724359B.1.2.3,Phases=3,Linecode=CAB103_3_3,Length=0.038889000,Units=km
new line.TR12130634 bus1=BMT8724359B.1.2.3,bus2=BMT149432319.1.2.3,Phases=3,Linecode=CAB103_3_3,Length=0.043926000,Units=km
new line.TR12132211 bus1=BMT157348325.1.2.3,bus2=BMT157348326.1.2.3,Phases=3,Linecode=CAB103_3_3,Length=0.034718000,Units=km
new line.TR12132212 bus1=BMT157348326.1.2.3,bus2=BMT555483B.1.2.3,Phases=3,Linecode=CABA06_3_3,Length=0.036174000,Units=km
new line.TR12132214 bus1=BMT555476B.1.2.3,bus2=BMT8725902B.1.2.3,Phases=3,Linecode=CABA06_3_3,Length=0.019281000,Units=km
new line.TR12132215 bus1=BMT8725902B.1.2.3,bus2=BMT157348327.1.2.3,Phases=3,Linecode=CABA06_3_3,Length=0.025502000,Units=km
new line.TR12132217 bus1=BMT555483B.1.2.3,bus2=BMT8725909B.1.2.3,Phases=3,Linecode=CABA06_3_3,Length=0.012543000,Units=km
new line.TR12132221 bus1=BMT555483B.1.2.3,bus2=BMT8725911B.1.2.3,Phases=3,Linecode=CABA06_3_3,Length=0.017134000,Units=km
new line.TR12132222 bus1=BMT555476B.1.2.3,bus2=BMT8725911B.1.2.3,Phases=3,Linecode=CABA06_3_3,Length=0.018202000,Units=km
new line.TR12147699 bus1=BMT167557501.1,bus2=BMT8743543B.1,Phases=1,Linecode=CAB103_3_1,Length=0.029117000,Units=km
new line.TR12147700 bus1=BMT8743543B.1,bus2=BMT8743552B.1,Phases=1,Linecode=CAB103_3_1,Length=0.056755000,Units=km
new line.TR12147702 bus1=BMT8743552B.1,bus2=BMT167557502.1,Phases=1,Linecode=CAB103_3_1,Length=0.076710000,Units=km
new line.TR12147703 bus1=BMT167557502.1,bus2=BMT8743558B.1,Phases=1,Linecode=CAB202_3_1,Length=0.134944000,Units=km
new line.TR12147705 bus1=BMT8743558B.1,bus2=BMT167557503.1,Phases=1,Linecode=CAB202_3_1,Length=0.257321000,Units=km
new line.TR12147706 bus1=BMT167557503.1,bus2=BMT167557505.1,Phases=1,Linecode=CAB103_3_1,Length=0.065960000,Units=km
new line.TR12148048 bus1=BMT176038261.1.2.3,bus2=BMT176038262.1.2.3,Phases=3,Linecode=CAB103_3_3,Length=0.019107000,Units=km
new line.TR12148050 bus1=BMT176038262.1.2.3,bus2=BMT176038263.1.2.3,Phases=3,Linecode=CAB103_3_3,Length=0.021215000,Units=km
new line.TR12148051 bus1=BMT176038262.1.2.3,bus2=BMT553229B.1.2.3,Phases=3,Linecode=CAB103_3_3,Length=0.006325000,Units=km
new line.TR1018043 bus1=BMT175927678.1.2.3,bus2=BMT175927679.1.2.3,Phases=3,Linecode=CABA08_3_3,Length=0.027820000,Units=km
new line.TR1018050 bus1=BMT175927679.1.2.3,bus2=BMT175927680.1.2.3,Phases=3,Linecode=CABA08_3_3,Length=0.025031000,Units=km
new line.TR1018057 bus1=BMT175927681.1.2.3,bus2=BMT175927682.1.2.3,Phases=3,Linecode=CABA08_3_3,Length=0.013066000,Units=km
new line.TR1018064 bus1=BMT175927682.1.2.3,bus2=BMT175927683.1.2.3,Phases=3,Linecode=CABA08_3_3,Length=0.024954000,Units=km
new line.TR1018071 bus1=BMT175927682.1.2.3,bus2=BMT175927684.1.2.3,Phases=3,Linecode=CAB103_3_3,Length=0.019666000,Units=km
new line.TR1018085 bus1=BMT157347986.1.2.3,bus2=BMT2069933B.1.2.3,Phases=3,Linecode=CAB208_3_3,Length=0.637463000,Units=km
new line.TR1018092 bus1=BMT175928086.1.2.3,bus2=BMT175928087.1.2.3,Phases=3,Linecode=CAB103_3_3,Length=0.012107000,Units=km
new line.TR1018099 bus1=BMT175928086.1.2.3,bus2=BMT559823B.1.2.3,Phases=3,Linecode=CAB103_3_3,Length=0.018385000,Units=km
new line.TR1018106 bus1=BMT175928086.1.2.3,bus2=BMT175928089.1.2.3,Phases=3,Linecode=CAB203_3_3,Length=0.010833000,Units=km
new line.TR1018113 bus1=BMT175927904.1.2.3,bus2=BMT175927905.1.2.3,Phases=3,Linecode=CAB207_3_3,Length=0.013603000,Units=km
new line.TR1018120 bus1=BMT175927904.1.2.3,bus2=BMT175927906.1.2.3,Phases=3,Linecode=CAB207_3_3,Length=0.009220000,Units=km
new line.TR1018127 bus1=BMT175927904.1.2.3,bus2=BMT584064B.1.2.3,Phases=3,Linecode=CAB207_3_3,Length=0.008603000,Units=km
new line.TR1018134 bus1=BMT175927930.1.2.3,bus2=BMT580424B.1.2.3,Phases=3,Linecode=CAB103_3_3,Length=0.011107000,Units=km
new line.TR1018141 bus1=BMT175927930.1.2.3,bus2=BMT581712B.1.2.3,Phases=3,Linecode=CAB103_3_3,Length=0.017225000,Units=km
new line.TR1018148 bus1=BMT175927930.1.2.3,bus2=BMT581726B.1.2.3,Phases=3,Linecode=CAB103_3_3,Length=0.012078000,Units=km
new line.TR1018155 bus1=BMT175927911.1.2.3,bus2=BMT580697B.1.2.3,Phases=3,Linecode=CAB103_3_3,Length=0.008119000,Units=km
new line.TR1018162 bus1=BMT175927911.1.2.3,bus2=BMT581824B.1.2.3,Phases=3,Linecode=CAB103_3_3,Length=0.026135000,Units=km
new line.TR1018169 bus1=BMT175927911.1.2.3,bus2=BMT581838B.1.2.3,Phases=3,Linecode=CAB103_3_3,Length=0.023799000,Units=km
new line.TR1018176 bus1=BMT175927942.1.2.3,bus2=BMT175922779.1.2.3,Phases=3,Linecode=CABA08_3_3,Length=0.029687000,Units=km
new line.TR1018211 bus1=BMT157348355.1.2.3,bus2=BMT567516B.1.2.3,Phases=3,Linecode=CAB103_3_3,Length=0.031147000,Units=km
new line.TR1018218 bus1=BMT157348355.1.2.3,bus2=BMT567537B.1.2.3,Phases=3,Linecode=CAB103_3_3,Length=0.006404000,Units=km
new line.TR1018225 bus1=BMT157348355.1.2.3,bus2=BMT567544B.1.2.3,Phases=3,Linecode=CAB102_3_3,Length=0.026251000,Units=km
new line.TR1018232 bus1=BMT176037997.1.2.3,bus2=BMT560131B.1.2.3,Phases=3,Linecode=CAB203_3_3,Length=0.010051000,Units=km
new line.TR1018239 bus1=BMT176037997.1.2.3,bus2=BMT560159B.1.2.3,Phases=3,Linecode=CAB203_3_3,Length=0.030152000,Units=km
new line.TR1018246 bus1=BMT176037997.1.2.3,bus2=BMT560173B.1.2.3,Phases=3,Linecode=CAB203_3_3,Length=0.027297000,Units=km
new line.TR12107745 bus1=BMT1402441B.1.2.3,bus2=BMT161907227.1.2.3,Phases=3,Linecode=CAB204_3_3,Length=0.037884000,Units=km
new line.TR12107746 bus1=BMT1402448B.1.2.3,bus2=BMT161907227.1.2.3,Phases=3,Linecode=CAB204_3_3,Length=0.377535000,Units=km
new line.TR12107757 bus1=BMT161907227.3,bus2=BMT161907229.3,Phases=1,Linecode=CAB202_3_1,Length=0.145398000,Units=km
new line.TR12108021 bus1=BMT163316115.1,bus2=BMT8219133B.1,Phases=1,Linecode=CABA06_3_1,Length=0.045312000,Units=km
new line.TR12108022 bus1=BMT8219133B.1,bus2=BMT8219140B.1,Phases=1,Linecode=CABA06_3_1,Length=0.045570000,Units=km
new line.TR12108023 bus1=BMT8219140B.1,bus2=BMT8219147B.1,Phases=1,Linecode=CABA06_3_1,Length=0.041436000,Units=km
new line.TR12108024 bus1=BMT8219147B.1,bus2=BMT163316116.1,Phases=1,Linecode=CABA06_3_1,Length=0.032144000,Units=km
new line.TR12108025 bus1=BMT163316116.1,bus2=BMT8700600B.1,Phases=1,Linecode=CABA06_3_1,Length=0.042017000,Units=km
new line.TR12108026 bus1=BMT8700600B.1,bus2=BMT8700601B.1,Phases=1,Linecode=CABA06_3_1,Length=0.041017000,Units=km
new line.TR12108027 bus1=BMT8700601B.1,bus2=BMT163316117.1,Phases=1,Linecode=CABA06_3_1,Length=0.016127000,Units=km
new line.TR12108028 bus1=BMT163316116.1,bus2=BMT8700599B.1,Phases=1,Linecode=CABA06_3_1,Length=0.045183000,Units=km
new line.TR12108029 bus1=BMT8700599B.1,bus2=BMT8700612B.1,Phases=1,Linecode=CABA06_3_1,Length=0.044916000,Units=km
new line.TR12108030 bus1=BMT8700612B.1,bus2=BMT8700615B.1,Phases=1,Linecode=CABA06_3_1,Length=0.044606000,Units=km
new line.TR12108031 bus1=BMT8700615B.1,bus2=BMT163316118.1,Phases=1,Linecode=CABA06_3_1,Length=0.026270000,Units=km
new line.TR12133257 bus1=BMT164746722.1.2.3,bus2=BMT148952583.1.2.3,Phases=3,Linecode=CABA06_3_3,Length=0.023140000,Units=km
new line.TR12133260 bus1=BMT161401997.1.2.3,bus2=BMT161401998.1.2.3,Phases=3,Linecode=CABA06_3_3,Length=0.035342000,Units=km
new line.TR12133261 bus1=BMT161401998.1.2.3,bus2=BMT8727083B.1.2.3,Phases=3,Linecode=CABA06_3_3,Length=0.035342000,Units=km
new line.TR12133262 bus1=BMT8727083B.1.2.3,bus2=BMT8727086B.1.2.3,Phases=3,Linecode=CABA06_3_3,Length=0.035342000,Units=km
new line.TR12133268 bus1=BMT8727086B.1.2.3,bus2=BMT8727088B.1.2.3,Phases=3,Linecode=CABA06_3_3,Length=0.036739000,Units=km
new line.TR12133271 bus1=BMT8727088B.1.2.3,bus2=BMT8727089B.1.2.3,Phases=3,Linecode=CABA06_3_3,Length=0.025615000,Units=km
new line.TR12133272 bus1=BMT8727089B.1.2.3,bus2=BMT8727092B.1.2.3,Phases=3,Linecode=CABA06_3_3,Length=0.036362000,Units=km
new line.TR12133273 bus1=BMT8727092B.1.2.3,bus2=BMT8727095B.1.2.3,Phases=3,Linecode=CABA06_3_3,Length=0.042441000,Units=km
new line.TR12133274 bus1=BMT8727095B.1.2.3,bus2=BMT161401999.1.2.3,Phases=3,Linecode=CABA06_3_3,Length=0.032452000,Units=km
new line.TR12133277 bus1=BMT161401999.1.2.3,bus2=BMT8727103B.1.2.3,Phases=3,Linecode=CABA06_3_3,Length=0.040314000,Units=km
new line.TR12133279 bus1=BMT8727103B.1.2.3,bus2=BMT161402000.1.2.3,Phases=3,Linecode=CABA06_3_3,Length=0.039411000,Units=km
new line.TR12133581 bus1=BMT175927787.1.2.3,bus2=BMT175927788.1.2.3,Phases=3,Linecode=CABA08_3_3,Length=0.020057000,Units=km
new line.TR12133582 bus1=BMT175927788.1.2.3,bus2=BMT558157B.1.2.3,Phases=3,Linecode=CABA08_3_3,Length=0.017856000,Units=km
new line.TR12136127 bus1=BMT176374053.1.2.3,bus2=BMT176374055.1.2.3,Phases=3,Linecode=CAB207_3_3,Length=0.035926000,Units=km
new line.TR12151699 bus1=BMT1441711B.1.2.3,bus2=BMT8747324B.1.2.3,Phases=3,Linecode=CAB207_3_3,Length=0.084506000,Units=km
new line.TR12151700 bus1=BMT8747324B.1.2.3,bus2=BMT168248806.1.2.3,Phases=3,Linecode=CAB207_3_3,Length=0.097571000,Units=km
new line.TR12148052 bus1=BMT176038263.1.2.3,bus2=BMT553222B.1.2.3,Phases=3,Linecode=CABA06_3_3,Length=0.036127000,Units=km
new line.TR12148053 bus1=BMT553222B.1.2.3,bus2=BMT553208B.1.2.3,Phases=3,Linecode=CABA06_3_3,Length=0.026175000,Units=km
new line.TR12148054 bus1=BMT553208B.1.2.3,bus2=BMT553194B.1.2.3,Phases=3,Linecode=CABA06_3_3,Length=0.031403000,Units=km
new line.TR12148055 bus1=BMT553194B.1.2.3,bus2=BMT176038269.1.2.3,Phases=3,Linecode=CABA06_3_3,Length=0.044724000,Units=km
new line.TR12148327 bus1=BMT827958B.1.2.3,bus2=BMT8744072B.1.2.3,Phases=3,Linecode=CAB103_3_3,Length=0.011405000,Units=km
new line.TR12148328 bus1=BMT8744072B.1.2.3,bus2=BMT149477792.1.2.3,Phases=3,Linecode=CAB103_3_3,Length=0.019929000,Units=km
new line.TR12148478 bus1=BMT163131676.1.2.3,bus2=BMT561678B.1.2.3,Phases=3,Linecode=CABA06_3_3,Length=0.015001000,Units=km
new line.TR12148479 bus1=BMT561678B.1.2.3,bus2=BMT561671B.1.2.3,Phases=3,Linecode=CABA06_3_3,Length=0.034061000,Units=km
new line.TR12148480 bus1=BMT561671B.1.2.3,bus2=BMT2284840B.1.2.3,Phases=3,Linecode=CABA06_3_3,Length=0.014001000,Units=km
new line.TR12148481 bus1=BMT2284840B.1.2.3,bus2=BMT163131678.1.2.3,Phases=3,Linecode=CABA06_3_3,Length=0.013001000,Units=km
new line.TR12149080 bus1=BMT150349385.1.2.3,bus2=BMT150349386.1.2.3,Phases=3,Linecode=CAB402_3_3,Length=0.021959000,Units=km
new line.TR12149081 bus1=BMT150349386.1.2.3,bus2=BMT150349387.1.2.3,Phases=3,Linecode=CAB103_3_3,Length=0.041349000,Units=km
new line.TR12149087 bus1=BMT176050242.1.2.3,bus2=BMT578184B.1.2.3,Phases=3,Linecode=CABA06_3_3,Length=0.031956000,Units=km
new line.TR12149088 bus1=BMT578184B.1.2.3,bus2=BMT176050244.1.2.3,Phases=3,Linecode=CABA06_3_3,Length=0.033386000,Units=km
new line.TR12149127 bus1=BMT163634828.1.2.3,bus2=BMT8745042B.1.2.3,Phases=3,Linecode=CABA06_3_3,Length=0.039631000,Units=km
new line.TR12149128 bus1=BMT8745042B.1.2.3,bus2=BMT8745043B.1.2.3,Phases=3,Linecode=CABA06_3_3,Length=0.036681000,Units=km
new line.TR12149129 bus1=BMT8745043B.1.2.3,bus2=BMT163634830.1.2.3,Phases=3,Linecode=CABA06_3_3,Length=0.019109000,Units=km
new line.TR12149130 bus1=BMT163634830.1.2.3,bus2=BMT8745048B.1.2.3,Phases=3,Linecode=CABA06_3_3,Length=0.047643000,Units=km
new line.TR12149131 bus1=BMT8745048B.1.2.3,bus2=BMT163634831.1.2.3,Phases=3,Linecode=CABA06_3_3,Length=0.025085000,Units=km
new line.TR12149132 bus1=BMT163634831.1.2.3,bus2=BMT8745052B.1.2.3,Phases=3,Linecode=CABA06_3_3,Length=0.026984000,Units=km
new line.TR12149133 bus1=BMT8745052B.1.2.3,bus2=BMT8745053B.1.2.3,Phases=3,Linecode=CABA06_3_3,Length=0.025315000,Units=km
new line.TR12149134 bus1=BMT8745053B.1.2.3,bus2=BMT8745054B.1.2.3,Phases=3,Linecode=CABA06_3_3,Length=0.022981000,Units=km
new line.TR12149135 bus1=BMT8745054B.1.2.3,bus2=BMT163634832.1.2.3,Phases=3,Linecode=CABA06_3_3,Length=0.036574000,Units=km
new line.TR12149136 bus1=BMT163634831.1.2.3,bus2=BMT8745066B.1.2.3,Phases=3,Linecode=CABA06_3_3,Length=0.023199000,Units=km
new line.TR12149138 bus1=BMT8745066B.1.2.3,bus2=BMT8745067B.1.2.3,Phases=3,Linecode=CABA06_3_3,Length=0.016128000,Units=km
new line.TR12149139 bus1=BMT8745067B.1.2.3,bus2=BMT8745075B.1.2.3,Phases=3,Linecode=CABA06_3_3,Length=0.010298000,Units=km
new line.TR12149140 bus1=BMT8745075B.1.2.3,bus2=BMT8745074B.1.2.3,Phases=3,Linecode=CABA06_3_3,Length=0.031022000,Units=km
new line.TR12149141 bus1=BMT8745074B.1.2.3,bus2=BMT163634833.1.2.3,Phases=3,Linecode=CABA06_3_3,Length=0.028738000,Units=km
new line.TR12149142 bus1=BMT163634896.1.2.3,bus2=BMT8745080B.1.2.3,Phases=3,Linecode=CABA06_3_3,Length=0.035517000,Units=km
new line.TR12149143 bus1=BMT8745080B.1.2.3,bus2=BMT163634897.1.2.3,Phases=3,Linecode=CABA06_3_3,Length=0.040020000,Units=km
new line.TR12149144 bus1=BMT163634897.1.2.3,bus2=BMT163634898.1.2.3,Phases=3,Linecode=CABA06_3_3,Length=0.040488000,Units=km
new line.TR12149440 bus1=BMT163634856.2,bus2=BMT8745425B.2,Phases=1,Linecode=CABA06_3_1,Length=0.031407000,Units=km
new line.TR12149441 bus1=BMT8745425B.2,bus2=BMT8745426B.2,Phases=1,Linecode=CABA06_3_1,Length=0.033125000,Units=km
new line.TR12149442 bus1=BMT8745426B.2,bus2=BMT8745427B.2,Phases=1,Linecode=CABA06_3_1,Length=0.041967000,Units=km
new line.TR12149443 bus1=BMT8745427B.2,bus2=BMT8745429B.2,Phases=1,Linecode=CABA06_3_1,Length=0.036907000,Units=km
new line.TR12149444 bus1=BMT8745429B.2,bus2=BMT163634857.2,Phases=1,Linecode=CABA06_3_1,Length=0.035834000,Units=km
new line.TR12151380 bus1=BMT167682965.3,bus2=BMT8746975B.3,Phases=1,Linecode=CAB202_3_1,Length=0.018390000,Units=km
new line.TR12151381 bus1=BMT8746975B.3,bus2=BMT167682966.3,Phases=1,Linecode=CAB202_3_1,Length=0.153089000,Units=km
new line.TR12161200 bus1=BMT174108840.1.2.3,bus2=BMT8757786B.1.2.3,Phases=3,Linecode=CAB103_3_3,Length=0.009149000,Units=km
new line.TR12161219 bus1=BMT8757786B.1.2.3,bus2=BMT530199B.1.2.3,Phases=3,Linecode=CAB103_3_3,Length=0.016554000,Units=km
new line.TR12161489 bus1=BMT163636199.3,bus2=BMT8757996B.3,Phases=1,Linecode=CAB103_3_1,Length=0.077678000,Units=km
new line.TR12161490 bus1=BMT8757996B.3,bus2=BMT8757997B.3,Phases=1,Linecode=CAB103_3_1,Length=0.074238000,Units=km
new line.TR12161491 bus1=BMT8757997B.3,bus2=BMT163636202.3,Phases=1,Linecode=CAB103_3_1,Length=0.063713000,Units=km
new line.TR12161507 bus1=BMT122306461.1,bus2=BMT175946645.1,Phases=1,Linecode=CAB103_3_1,Length=0.029730000,Units=km
new line.TR12161508 bus1=BMT175946645.1,bus2=BMT175946646.1,Phases=1,Linecode=CAB202_3_1,Length=0.175127000,Units=km
new line.TR12161587 bus1=BMT175927935.1.2.3,bus2=BMT579647B.1.2.3,Phases=3,Linecode=CABA06_3_3,Length=0.026866000,Units=km
new line.TR12161589 bus1=BMT579633B.1.2.3,bus2=BMT175927937.1.2.3,Phases=3,Linecode=CABA06_3_3,Length=0.034832000,Units=km
new line.TR12161622 bus1=BMT579647B.1.2.3,bus2=BMT8758103B.1.2.3,Phases=3,Linecode=CABA06_3_3,Length=0.017366000,Units=km
new line.TR12161629 bus1=BMT8758103B.1.2.3,bus2=BMT579633B.1.2.3,Phases=3,Linecode=CABA06_3_3,Length=0.015117000,Units=km
new line.TR12163551 bus1=BMT175921047.1.2.3,bus2=BMT8760397B.1.2.3,Phases=3,Linecode=CABA08_3_3,Length=0.040471000,Units=km
new line.TR12163552 bus1=BMT8760397B.1.2.3,bus2=BMT2103771B.1.2.3,Phases=3,Linecode=CABA08_3_3,Length=0.044836000,Units=km
new line.TR12163866 bus1=BMT8760787B.1,bus2=BMT163637101.1,Phases=1,Linecode=CAB103_3_1,Length=0.037538000,Units=km
new line.TR12165081 bus1=BMT160255621.3,bus2=BMT8762361B.3,Phases=1,Linecode=CAB202_3_1,Length=0.071626000,Units=km
new line.TR12165082 bus1=BMT8762361B.3,bus2=BMT8762367B.3,Phases=1,Linecode=CAB202_3_1,Length=0.045567000,Units=km
new line.TR12165083 bus1=BMT8762367B.3,bus2=BMT8762370B.3,Phases=1,Linecode=CAB202_3_1,Length=0.067662000,Units=km
new line.TR12110603 bus1=BMT8384095B.1.2.3,bus2=BMT2103239B.1.2.3,Phases=3,Linecode=CABA08_3_3,Length=0.035387000,Units=km
new line.TR12122961 bus1=BMT1418877B.1.2.3,bus2=BMT8715877B.1.2.3,Phases=3,Linecode=CABA08_3_3,Length=0.024288000,Units=km
new line.TR12122962 bus1=BMT1418884B.1.2.3,bus2=BMT8715877B.1.2.3,Phases=3,Linecode=CABA08_3_3,Length=0.021126000,Units=km
new line.TR12123028 bus1=BMT157347987.1.2.3,bus2=BMT157347989.1.2.3,Phases=3,Linecode=CABA08_3_3,Length=0.054062000,Units=km
new line.TR12123029 bus1=BMT1418933B.1.2.3,bus2=BMT160996377.1.2.3,Phases=3,Linecode=CABA08_3_3,Length=0.055239000,Units=km
new line.TR12123885 bus1=BMT175921995.1.2.3,bus2=BMT175921997.1.2.3,Phases=3,Linecode=CAB103_3_3,Length=0.060371000,Units=km
new line.TR12123886 bus1=BMT2872350B.1.2.3,bus2=BMT175921997.1.2.3,Phases=3,Linecode=CAB203_3_3,Length=0.176386000,Units=km
new line.TR12123899 bus1=BMT175921997.1.2.3,bus2=BMT8716820B.1.2.3,Phases=3,Linecode=CABA06_3_3,Length=0.036779000,Units=km
new line.TR12123904 bus1=BMT8716820B.1.2.3,bus2=BMT175921999.1.2.3,Phases=3,Linecode=CABA06_3_3,Length=0.020704000,Units=km
new line.TR12123910 bus1=BMT175922005.1.2.3,bus2=BMT175922006.1.2.3,Phases=3,Linecode=CAB902_4_3,Length=0.024134000,Units=km
new line.TR12126473 bus1=BMT175921067.1.2.3,bus2=BMT175921072.1.2.3,Phases=3,Linecode=CAB107_3_3,Length=0.000501000,Units=km
new line.TR12126474 bus1=BMT175921099.1.2.3,bus2=BMT175921100.1.2.3,Phases=3,Linecode=CAB103_3_3,Length=0.032761000,Units=km
new line.TR12126492 bus1=BMT175921066.1.2.3,bus2=BMT508191B.1.2.3,Phases=3,Linecode=CABA08_3_3,Length=0.009057000,Units=km
new line.TR12126493 bus1=BMT508191B.1.2.3,bus2=BMT508198B.1.2.3,Phases=3,Linecode=CABA08_3_3,Length=0.030023000,Units=km
new line.TR12126500 bus1=BMT508198B.1.2.3,bus2=BMT508205B.1.2.3,Phases=3,Linecode=CABA08_3_3,Length=0.038087000,Units=km
new line.TR12126504 bus1=BMT508205B.1.2.3,bus2=BMT508212B.1.2.3,Phases=3,Linecode=CABA08_3_3,Length=0.034993000,Units=km
new line.TR12126505 bus1=BMT508212B.1.2.3,bus2=BMT175921068.1.2.3,Phases=3,Linecode=CABA08_3_3,Length=0.035854000,Units=km
new line.TR12126506 bus1=BMT175921068.1.2.3,bus2=BMT508226B.1.2.3,Phases=3,Linecode=CABA08_3_3,Length=0.034993000,Units=km
new line.TR12126508 bus1=BMT508233B.1.2.3,bus2=BMT508240B.1.2.3,Phases=3,Linecode=CABA08_3_3,Length=0.023329000,Units=km
new line.TR12126509 bus1=BMT508240B.1.2.3,bus2=BMT508247B.1.2.3,Phases=3,Linecode=CABA08_3_3,Length=0.034445000,Units=km
new line.TR12126512 bus1=BMT508247B.1.2.3,bus2=BMT508254B.1.2.3,Phases=3,Linecode=CABA08_3_3,Length=0.038595000,Units=km
new line.TR12126513 bus1=BMT508254B.1.2.3,bus2=BMT508261B.1.2.3,Phases=3,Linecode=CABA08_3_3,Length=0.039969000,Units=km
new line.TR12126519 bus1=BMT508261B.1.2.3,bus2=BMT175921069.1.2.3,Phases=3,Linecode=CABA08_3_3,Length=0.036364000,Units=km
new line.TR12126523 bus1=BMT175921115.1.2.3,bus2=BMT175921070.1.2.3,Phases=3,Linecode=CABA08_3_3,Length=0.019109000,Units=km
new line.TR12126542 bus1=BMT175921102.1.2.3,bus2=BMT175921103.1.2.3,Phases=3,Linecode=CAB902_4_3,Length=0.013002000,Units=km
new line.TR12127268 bus1=BMT161643894.3,bus2=BMT161643896.3,Phases=1,Linecode=CAB103_3_1,Length=0.020211000,Units=km
new line.TR12127271 bus1=BMT161643896.3,bus2=BMT161643897.3,Phases=1,Linecode=CAB202_3_1,Length=0.400451000,Units=km
new line.TR12127272 bus1=BMT161643897.3,bus2=BMT161643898.3,Phases=1,Linecode=CAB103_3_1,Length=0.044777000,Units=km
new line.TR12143510 bus1=BMT172891427.2,bus2=BMT8738210B.2,Phases=1,Linecode=CAB103_3_1,Length=0.003614000,Units=km
new line.TR12143511 bus1=BMT8738210B.2,bus2=BMT172891430.2,Phases=1,Linecode=CAB103_3_1,Length=0.012056000,Units=km
new line.TR12143519 bus1=BMT497418B.1.2.3,bus2=BMT8738216B.1.2.3,Phases=3,Linecode=CAB204_3_3,Length=0.023412000,Units=km
new line.TR12143520 bus1=BMT8738216B.1.2.3,bus2=BMT173655507.1.2.3,Phases=3,Linecode=CAB204_3_3,Length=0.024702000,Units=km
new line.TR12143527 bus1=BMT173655507.1,bus2=BMT3132694B.1,Phases=1,Linecode=CAB103_3_1,Length=0.019043000,Units=km
new line.TR12143529 bus1=BMT3132694B.1,bus2=BMT173655509.1,Phases=1,Linecode=CAB103_3_1,Length=0.026275000,Units=km
new line.TR12144238 bus1=BMT172690653.1.2.3,bus2=BMT172690655.1.2.3,Phases=3,Linecode=CABA06_3_3,Length=0.034775000,Units=km
...
