2024_89_CemigReconfigurationCases/1_SEsCemig/JFAU07/JFAU07ChavesMT.dss
new line.CTR10022 bus1=BMT175927725.1.2.3,bus2=BMT175928138.1.2.3,Phases=3,LineCode=tieSwitch,Length=0.001,Units=km,switch=T !numEQ 127179
new line.CTR100378 bus1=BMT122316688.3,bus2=BMT122316772.3,Phases=1,LineCode=tieSwitch1,Length=0.001,Units=km,switch=T !numEQ 98844
new line.CTR100385 bus1=BMT122349721.1.2.3,bus2=BMT122349728.1.2.3,Phases=3,LineCode=tieSwitch,Length=0.001,Units=km,switch=T !numEQ 23331
new line.CTR100532 bus1=BMT163636657.1,bus2=BMT163637299.1,Phases=1,LineCode=tieSwitch1,Length=0.001,Units=km,switch=T !numEQ 108462
new line.CTR100665 bus1=BMT122315960.1,bus2=BMT122315988.1,Phases=1,LineCode=tieSwitch1,Length=0.001,Units=km,switch=T !numEQ 107327
new line.CTR101162 bus1=BMT163636780.1.2.3,bus2=BMT163637048.1.2.3,Phases=3,LineCode=tieSwitch,Length=0.001,Units=km,switch=T !numEQ 122031
new line.CTR101225 bus1=BMT122353690.1,bus2=BMT122364799.1,Phases=1,LineCode=tieSwitch1,Length=0.001,Units=km,switch=T !numEQ 121866
new line.CTR106727 bus1=BMT163636652.1.2.3,bus2=BMT163637328.1.2.3,Phases=3,LineCode=tieSwitch,Length=0.001,Units=km,switch=T !numEQ 22409
new line.CTR108204 bus1=BMT163635360.3,bus2=BMT163635626.3,Phases=1,LineCode=tieSwitch1,Length=0.001,Units=km,switch=T !numEQ 112214
new line.CTR11338 bus1=BMT163634522.1,bus2=BMT163634670.1,Phases=1,LineCode=tieSwitch1,Length=0.001,Units=km,switch=T !numEQ 122531
new line.CTR11345 bus1=BMT163634692.1,bus2=BMT163634697.1,Phases=1,LineCode=tieSwitch1,Length=0.001,Units=km,switch=T !numEQ 122532
new line.CTR11352 bus1=BMT163634502.1,bus2=BMT163634699.1,Phases=1,LineCode=tieSwitch1,Length=0.001,Units=km,switch=T !numEQ 122533
new line.CTR11359 bus1=BMT163634706.2,bus2=BMT163636420.2,Phases=1,LineCode=tieSwitch1,Length=0.001,Units=km,switch=T !numEQ 122535
new line.CTR114168 bus1=BMT163637207.3,bus2=BMT163637288.3,Phases=1,LineCode=tieSwitch1,Length=0.001,Units=km,switch=T !numEQ 127434
new line.CTR114329 bus1=BMT163636405.2,bus2=BMT163636412.2,Phases=1,LineCode=tieSwitch1,Length=0.001,Units=km,switch=T !numEQ 116236
new line.CTR119033 bus1=BMT163635756.1,bus2=BMT163635758.1,Phases=1,LineCode=tieSwitch1,Length=0.001,Units=km,switch=T !numEQ 117970
new line.CTR119313 bus1=BMT122358786.3,bus2=BMT173405829.3,Phases=1,LineCode=tieSwitch1,Length=0.001,Units=km,switch=T !numEQ 133898
new line.CTR119614 bus1=BMT175921332.1.2.3,bus2=BMT176415603.1.2.3,Phases=3,LineCode=tieSwitch,Length=0.001,Units=km,switch=T !numEQ 137410
new line.CTR120216 bus1=BMT163635303.1.2.3,bus2=BMT163635308.1.2.3,Phases=3,LineCode=tieSwitch,Length=0.001,Units=km,switch=T !numEQ 138272
new line.CTR120356 bus1=BMT122353858.2,bus2=BMT122355853.2,Phases=1,LineCode=tieSwitch1,Length=0.001,Units=km,switch=T !numEQ 117397
new line.CTR120370 bus1=BMT122353900.2,bus2=BMT122355811.2,Phases=1,LineCode=tieSwitch1,Length=0.001,Units=km,switch=T !numEQ 117398
new line.CTR126271 bus1=BMT175921046.1.2.3,bus2=BMT175921047.1.2.3,Phases=3,LineCode=tieSwitch,Length=0.001,Units=km,switch=T !numEQ 22151
new line.CTR127090 bus1=BMT163635367.1.2.3,bus2=BMT163635615.1.2.3,Phases=3,LineCode=tieSwitch,Length=0.001,Units=km,switch=T !numEQ 102957
new line.CTR127230 bus1=BMT122349364.1.2.3,bus2=BMT156065498.1.2.3,Phases=3,LineCode=tieSwitch,Length=0.001,Units=km,switch=T !numEQ 117978
new line.CTR1279 bus1=BMT173177758.1.2.3,bus2=BMT173185159.1.2.3,Phases=3,LineCode=tieSwitch,Length=0.001,Units=km,switch=T !numEQ 22092
new line.CTR129827 bus1=BMT163635239.1.2.3,bus2=BMT163635800.1.2.3,Phases=3,LineCode=tieSwitch,Length=0.001,Units=km,switch=T !numEQ 112191
new line.CTR129939 bus1=BMT163635139.3,bus2=BMT163635142.3,Phases=1,LineCode=tieSwitch1,Length=0.001,Units=km,switch=T !numEQ 100936
new line.CTR130114 bus1=BMT175921831.1.2.3,bus2=BMT175921832.1.2.3,Phases=3,LineCode=tieSwitch,Length=0.001,Units=km,switch=T !numEQ 22438
new line.CTR130646 bus1=BMT163635395.2,bus2=BMT163635398.2,Phases=1,LineCode=tieSwitch1,Length=0.001,Units=km,switch=T !numEQ 130382
new line.CTR130681 bus1=BMT163635451.2,bus2=BMT163635581.2,Phases=1,LineCode=tieSwitch1,Length=0.001,Units=km,switch=T !numEQ 130384
new line.CTR130688 bus1=BMT122361565.1,bus2=BMT159142467.1,Phases=1,LineCode=tieSwitch1,Length=0.001,Units=km,switch=T !numEQ 133885
new line.CTR130723 bus1=BMT149432154.1,bus2=BMT149432158.1,Phases=1,LineCode=tieSwitch1,Length=0.001,Units=km,switch=T !numEQ 120057
new line.CTR130786 bus1=BMT163634551.1,bus2=BMT163634576.1,Phases=1,LineCode=tieSwitch1,Length=0.001,Units=km,switch=T !numEQ 134351
new line.CTR130821 bus1=BMT122318130.1.2.3,bus2=BMT156810500.1.2.3,Phases=3,LineCode=tieSwitch,Length=0.001,Units=km,switch=T !numEQ 134362
new line.CTR130947 bus1=BMT163634903.1.2.3,bus2=BMT163634907.1.2.3,Phases=3,LineCode=tieSwitch,Length=0.001,Units=km,switch=T !numEQ 22914
new line.CTR130954 bus1=BMT122358170.3,bus2=BMT122358198.3,Phases=1,LineCode=tieSwitch1,Length=0.001,Units=km,switch=T !numEQ 22863
new line.CTR130961 bus1=BMT122358289.3,bus2=BMT122360277.3,Phases=1,LineCode=tieSwitch1,Length=0.001,Units=km,switch=T !numEQ 23466
new line.CTR130968 bus1=BMT122358422.3,bus2=BMT122360004.3,Phases=1,LineCode=tieSwitch1,Length=0.001,Units=km,switch=T !numEQ 23467
new line.CTR130975 bus1=BMT163636873.2,bus2=BMT175037362.2,Phases=1,LineCode=tieSwitch1,Length=0.001,Units=km,switch=T !numEQ 122546
new line.CTR131024 bus1=BMT163635734.1.2.3,bus2=BMT163635737.1.2.3,Phases=3,LineCode=tieSwitch,Length=0.001,Units=km,switch=T !numEQ 22685
new line.CTR131031 bus1=BMT122361299.1,bus2=BMT122361320.1,Phases=1,LineCode=tieSwitch1,Length=0.001,Units=km,switch=T !numEQ 23488
new line.CTR131038 bus1=BMT145581594.1,bus2=BMT145581608.1,Phases=1,LineCode=tieSwitch1,Length=0.001,Units=km,switch=T !numEQ 22889
new line.CTR131059 bus1=BMT122353753.2,bus2=BMT122353760.2,Phases=1,LineCode=tieSwitch1,Length=0.001,Units=km,switch=T !numEQ 23464
new line.CTR131073 bus1=BMT122353928.2,bus2=BMT122355713.2,Phases=1,LineCode=tieSwitch1,Length=0.001,Units=km,switch=T !numEQ 59418
new line.CTR131094 bus1=BMT122352703.1.2.3,bus2=BMT162674785.1.2.3,Phases=3,LineCode=tieSwitch,Length=0.001,Units=km,switch=T !numEQ 22847
new line.CTR131108 bus1=BMT122353718.1,bus2=BMT122364680.1,Phases=1,LineCode=tieSwitch1,Length=0.001,Units=km,switch=T !numEQ 59593
new line.CTR131115 bus1=BMT122355923.3,bus2=BMT176310516.3,Phases=1,LineCode=tieSwitch1,Length=0.001,Units=km,switch=T !numEQ 23126
new line.CTR131129 bus1=BMT122356014.1.2.3,bus2=BMT162675464.1.2.3,Phases=3,LineCode=tieSwitch,Length=0.001,Units=km,switch=T !numEQ 23322
new line.CTR105040 bus1=BMT122373395.1.2.3,bus2=BMT128251603.1.2.3,Phases=3,LineCode=tieSwitch,Length=0.001,Units=km,switch=T !numEQ 23413
new line.CTR105075 bus1=BMT175921225.1.2.3,bus2=BMT175921543.1.2.3,Phases=3,LineCode=tieSwitch,Length=0.001,Units=km,switch=T !numEQ 108401
new line.CTR10533 bus1=BMT163635727.1.2.3,bus2=BMT163635728.1.2.3,Phases=3,LineCode=tieSwitch,Length=0.001,Units=km,switch=T !numEQ 22687
new line.CTR106454 bus1=BMT163634928.3,bus2=BMT163634938.3,Phases=1,LineCode=tieSwitch1,Length=0.001,Units=km,switch=T !numEQ 131244
new line.CTR11191 bus1=BMT163634488.1,bus2=BMT163634703.1,Phases=1,LineCode=tieSwitch1,Length=0.001,Units=km,switch=T !numEQ 122534
new line.CTR11198 bus1=BMT163634476.1,bus2=BMT163636441.1,Phases=1,LineCode=tieSwitch1,Length=0.001,Units=km,switch=T !numEQ 122536
new line.CTR112481 bus1=BMT173269044.1.2.3,bus2=BMT175386671.1.2.3,Phases=3,LineCode=tieSwitch,Length=0.001,Units=km,switch=T !numEQ 22601
new line.CTR112558 bus1=BMT122372030.1.2.3,bus2=BMT122372023.1.2.3,Phases=3,LineCode=tieSwitch,Length=0.001,Units=km,switch=T !numEQ 136894
open line.CTR112558 term=1
new line.CTR112852 bus1=BMT173322832.1.2.3,bus2=BMT173322810.1.2.3,Phases=3,LineCode=tieSwitch,Length=0.001,Units=km,switch=T !numEQ 138416
open line.CTR112852 term=1
new line.CTR113062 bus1=BMT122365198.3,bus2=BMT175440462.3,Phases=1,LineCode=tieSwitch1,Length=0.001,Units=km,switch=T !numEQ 124673
new line.CTR117535 bus1=BMT163635051.3,bus2=BMT163635188.3,Phases=1,LineCode=tieSwitch1,Length=0.001,Units=km,switch=T !numEQ 23151
new line.CTR122960 bus1=BMT176374059.1.2.3,bus2=BMT163634350.1.2.3,Phases=3,LineCode=tieSwitch,Length=0.001,Units=km,switch=T !numEQ 135074
new line.CTR12416 bus1=BMT163636101.1,bus2=BMT163636103.1,Phases=1,LineCode=tieSwitch1,Length=0.001,Units=km,switch=T !numEQ 125833
new line.CTR128329 bus1=BMT163635088.3,bus2=BMT163635119.3,Phases=1,LineCode=tieSwitch1,Length=0.001,Units=km,switch=T !numEQ 58874
new line.CTR128637 bus1=BMT173000415.1,bus2=BMT173000456.1,Phases=1,LineCode=tieSwitch1,Length=0.001,Units=km,switch=T !numEQ 23123
new line.CTR128756 bus1=BMT122349707.1.2.3,bus2=BMT133430049.1.2.3,Phases=3,LineCode=tieSwitch,Length=0.001,Units=km,switch=T !numEQ 155416
new line.CTR128791 bus1=BMT163635740.1.2.3,bus2=BMT163635741.1.2.3,Phases=3,LineCode=tieSwitch,Length=0.001,Units=km,switch=T !numEQ 128257
new line.CTR128931 bus1=BMT122248410.1.2.3,bus2=BMT122248403.1.2.3,Phases=3,LineCode=tieSwitch,Length=0.001,Units=km,switch=T !numEQ 58512
new line.CTR129092 bus1=BMT122363203.1,bus2=BMT168950110.1,Phases=1,LineCode=tieSwitch1,Length=0.001,Units=km,switch=T !numEQ 22885
new line.CTR129246 bus1=BMT163635374.3,bus2=BMT163635434.3,Phases=1,LineCode=tieSwitch1,Length=0.001,Units=km,switch=T !numEQ 102955
new line.CTR12927 bus1=BMT122362062.2,bus2=BMT122362076.2,Phases=1,LineCode=tieSwitch1,Length=0.001,Units=km,switch=T !numEQ 125222
new line.CTR129302 bus1=BMT163635355.1.2.3,bus2=BMT163635689.1.2.3,Phases=3,LineCode=tieSwitch,Length=0.001,Units=km,switch=T !numEQ 102960
new line.CTR12941 bus1=BMT163635453.2,bus2=BMT163635579.2,Phases=1,LineCode=tieSwitch1,Length=0.001,Units=km,switch=T !numEQ 125224
new line.CTR129456 bus1=BMT163635087.3,bus2=BMT163635126.3,Phases=1,LineCode=tieSwitch1,Length=0.001,Units=km,switch=T !numEQ 58868
new line.CTR129561 bus1=BMT122360879.3,bus2=BMT122362265.3,Phases=1,LineCode=tieSwitch1,Length=0.001,Units=km,switch=T !numEQ 101441
new line.CTR129722 bus1=BMT122352185.1,bus2=BMT157257211.1,Phases=1,LineCode=tieSwitch1,Length=0.001,Units=km,switch=T !numEQ 147604
new line.CTR129757 bus1=BMT122316835.3,bus2=BMT122316849.3,Phases=1,LineCode=tieSwitch1,Length=0.001,Units=km,switch=T !numEQ 101026
new line.CTR133845 bus1=BMT122358121.3,bus2=BMT122360473.3,Phases=1,LineCode=tieSwitch1,Length=0.001,Units=km,switch=T !numEQ 195406
new line.CTR134132 bus1=BMT175921925.1.2.3,bus2=BMT175922067.1.2.3,Phases=3,LineCode=tieSwitch,Length=0.001,Units=km,switch=T !numEQ 153570
new line.CTR134335 bus1=BMT163637240.3,bus2=BMT163637241.3,Phases=1,LineCode=tieSwitch1,Length=0.001,Units=km,switch=T !numEQ 201644
new line.CTR134888 bus1=BMT172965429.1.2.3,bus2=BMT122339354.1.2.3,Phases=3,LineCode=tieSwitch,Length=0.001,Units=km,switch=T !numEQ 23591
new line.CTR134986 bus1=BMT163636730.3,bus2=BMT163637124.3,Phases=1,LineCode=tieSwitch1,Length=0.001,Units=km,switch=T !numEQ 152777
new line.CTR13501 bus1=BMT163634234.1,bus2=BMT163637432.1,Phases=1,LineCode=tieSwitch1,Length=0.001,Units=km,switch=T !numEQ 22257
new line.CTR135056 bus1=BMT122357043.1,bus2=BMT122362930.1,Phases=1,LineCode=tieSwitch1,Length=0.001,Units=km,switch=T !numEQ 152711
new line.CTR135084 bus1=BMT122313237.2,bus2=BMT122313258.2,Phases=1,LineCode=tieSwitch1,Length=0.001,Units=km,switch=T !numEQ 23012
new line.CTR135154 bus1=BMT149432396.1.2.3,bus2=BMT149432399.1.2.3,Phases=3,LineCode=tieSwitch,Length=0.001,Units=km,switch=T !numEQ 116940
new line.CTR135196 bus1=BMT122312159.1,bus2=BMT175574350.1,Phases=1,LineCode=tieSwitch1,Length=0.001,Units=km,switch=T !numEQ 117249
new line.CTR135217 bus1=BMT149432129.1.2.3,bus2=BMT149432132.1.2.3,Phases=3,LineCode=tieSwitch,Length=0.001,Units=km,switch=T !numEQ 124290
new line.CTR135322 bus1=BMT122372583.1.2.3,bus2=BMT155888460.1.2.3,Phases=3,LineCode=tieSwitch,Length=0.001,Units=km,switch=T !numEQ 153571
new line.CTR141307 bus1=BMT175928091.1.2.3,bus2=BMT175928104.1.2.3,Phases=3,LineCode=tieSwitch,Length=0.001,Units=km,switch=T !numEQ 154971
new line.CTR141412 bus1=BMT122354481.2,bus2=BMT170716464.2,Phases=1,LineCode=tieSwitch1,Length=0.001,Units=km,switch=T !numEQ 93501
new line.CTR141601 bus1=BMT163635094.3,bus2=BMT163635124.3,Phases=1,LineCode=tieSwitch1,Length=0.001,Units=km,switch=T !numEQ 152708
new line.CTR142021 bus1=BMT163636636.1,bus2=BMT163637371.1,Phases=1,LineCode=tieSwitch1,Length=0.001,Units=km,switch=T !numEQ 124684
new line.CTR142077 bus1=BMT175921154.3,bus2=BMT175921168.3,Phases=1,LineCode=tieSwitch1,Length=0.001,Units=km,switch=T !numEQ 155663
new line.CTR142147 bus1=BMT149431839.1.2.3,bus2=BMT149431845.1.2.3,Phases=3,LineCode=tieSwitch,Length=0.001,Units=km,switch=T !numEQ 145056
new line.CTR142385 bus1=BMT122312894.2,bus2=BMT122313062.2,Phases=1,LineCode=tieSwitch1,Length=0.001,Units=km,switch=T !numEQ 22835
new line.CTR1426 bus1=BMT153948458.1.2.3,bus2=BMT173467602.1.2.3,Phases=3,LineCode=tieSwitch,Length=0.001,Units=km,switch=T !numEQ 127128
new line.CTR104557 bus1=BMT175921051.1.2.3,bus2=BMT175921191.1.2.3,Phases=3,LineCode=tieSwitch,Length=0.001,Units=km,switch=T !numEQ 22462
new line.CTR110325 bus1=BMT175922198.1.2.3,bus2=BMT175922362.1.2.3,Phases=3,LineCode=tieSwitch,Length=0.001,Units=km,switch=T !numEQ 154914
new line.CTR11037 bus1=BMT175922350.1.2.3,bus2=BMT175922355.1.2.3,Phases=3,LineCode=tieSwitch,Length=0.001,Units=km,switch=T !numEQ 199410
new line.CTR110409 bus1=BMT175921243.1.2.3,bus2=BMT175921248.1.2.3,Phases=3,LineCode=tieSwitch,Length=0.001,Units=km,switch=T !numEQ 23175
new line.CTR110416 bus1=BMT175921203.1.2.3,bus2=BMT122345171.1.2.3,Phases=3,LineCode=tieSwitch,Length=0.001,Units=km,switch=T !numEQ 23227
open line.CTR110416 term=1
new line.CTR110437 bus1=BMT122318067.2,bus2=BMT122318081.2,Phases=1,LineCode=tieSwitch1,Length=0.001,Units=km,switch=T !numEQ 93689
new line.CTR110500 bus1=BMT175927707.1.2.3,bus2=BMT2164979.1.2.3,Phases=3,LineCode=tieSwitch,Length=0.001,Units=km,switch=T !numEQ 22457
open line.CTR110500 term=1
new line.CTR11653 bus1=BMT122352794.2,bus2=BMT122353487.2,Phases=1,LineCode=tieSwitch1,Length=0.001,Units=km,switch=T !numEQ 124709
new line.CTR11674 bus1=BMT122352962.2,bus2=BMT122353284.2,Phases=1,LineCode=tieSwitch1,Length=0.001,Units=km,switch=T !numEQ 124712
new line.CTR116933 bus1=BMT175921272.1.2.3,bus2=BMT175921274.1.2.3,Phases=3,LineCode=tieSwitch,Length=0.001,Units=km,switch=T !numEQ 23455
new line.CTR117010 bus1=BMT163634290.2,bus2=BMT163636522.2,Phases=1,LineCode=tieSwitch1,Length=0.001,Units=km,switch=T !numEQ 152297
new line.CTR124787 bus1=BMT175921830.1.2.3,bus2=BMT176724678.1.2.3,Phases=3,LineCode=tieSwitch,Length=0.001,Units=km,switch=T !numEQ 101018
new line.CTR131843 bus1=BMT122356343.3,bus2=BMT169386659.3,Phases=1,LineCode=tieSwitch1,Length=0.001,Units=km,switch=T !numEQ 153421
new line.CTR131850 bus1=BMT122356588.3,bus2=BMT122356700.3,Phases=1,LineCode=tieSwitch1,Length=0.001,Units=km,switch=T !numEQ 153422
new line.CTR132088 bus1=BMT122306972.1,bus2=BMT173296992.1,Phases=1,LineCode=tieSwitch1,Length=0.001,Units=km,switch=T !numEQ 142737
new line.CTR132676 bus1=BMT157348084.1.2.3,bus2=BMT157348086.1.2.3,Phases=3,LineCode=tieSwitch,Length=0.001,Units=km,switch=T !numEQ 197225
new line.CTR132753 bus1=BMT163635880.2,bus2=BMT163635882.2,Phases=1,LineCode=tieSwitch1,Length=0.001,Units=km,switch=T !numEQ 153085
new line.CTR132991 bus1=BMT122364540.3,bus2=BMT161643893.3,Phases=1,LineCode=tieSwitch1,Length=0.001,Units=km,switch=T !numEQ 153335
new line.CTR133257 bus1=BMT122317465.1.2.3,bus2=BMT122317500.1.2.3,Phases=3,LineCode=tieSwitch,Length=0.001,Units=km,switch=T !numEQ 130356
new line.CTR133278 bus1=BMT122305915.1.2.3,bus2=BMT159990735.1.2.3,Phases=3,LineCode=tieSwitch,Length=0.001,Units=km,switch=T !numEQ 130351
new line.CTR133292 bus1=BMT122317528.1.2.3,bus2=BMT122317633.1.2.3,Phases=3,LineCode=tieSwitch,Length=0.001,Units=km,switch=T !numEQ 130352
new line.CTR133299 bus1=BMT122317577.1.2.3,bus2=BMT122317598.1.2.3,Phases=3,LineCode=tieSwitch,Length=0.001,Units=km,switch=T !numEQ 130354
new line.CTR133306 bus1=BMT122317535.1.2.3,bus2=BMT122317584.1.2.3,Phases=3,LineCode=tieSwitch,Length=0.001,Units=km,switch=T !numEQ 130353
new line.CTR133453 bus1=BMT122308967.1.2.3,bus2=BMT151062980.1.2.3,Phases=3,LineCode=tieSwitch,Length=0.001,Units=km,switch=T !numEQ 153810
new line.CTR133460 bus1=BMT153591711.1.2.3,bus2=BMT153591714.1.2.3,Phases=3,LineCode=tieSwitch,Length=0.001,Units=km,switch=T !numEQ 153836
new line.CTR139340 bus1=BMT122351681.1,bus2=BMT122351744.1,Phases=1,LineCode=tieSwitch1,Length=0.001,Units=km,switch=T !numEQ 127111
new line.CTR139347 bus1=BMT122317710.1,bus2=BMT122317724.1,Phases=1,LineCode=tieSwitch1,Length=0.001,Units=km,switch=T !numEQ 152826
new line.CTR139368 bus1=BMT122350680.1.2.3,bus2=BMT160997806.1.2.3,Phases=3,LineCode=tieSwitch,Length=0.001,Units=km,switch=T !numEQ 22175
new line.CTR139375 bus1=BMT175922120.1.2.3,bus2=BMT175922140.1.2.3,Phases=3,LineCode=tieSwitch,Length=0.001,Units=km,switch=T !numEQ 100957
new line.CTR139956 bus1=BMT175921042.1.2.3,bus2=BMT175921192.1.2.3,Phases=3,LineCode=tieSwitch,Length=0.001,Units=km,switch=T !numEQ 152339
new line.CTR139991 bus1=BMT122306965.1,bus2=BMT168926433.1,Phases=1,LineCode=tieSwitch1,Length=0.001,Units=km,switch=T !numEQ 142765
new line.CTR140173 bus1=BMT122372688.1.2.3,bus2=BMT163403550.1.2.3,Phases=3,LineCode=tieSwitch,Length=0.001,Units=km,switch=T !numEQ 151758
new line.CTR140334 bus1=BMT163634748.1.2.3,bus2=BMT170644700.1.2.3,Phases=3,LineCode=tieSwitch,Length=0.001,Units=km,switch=T !numEQ 23051
new line.CTR140460 bus1=BMT163635346.1.2.3,bus2=BMT163635695.1.2.3,Phases=3,LineCode=tieSwitch,Length=0.001,Units=km,switch=T !numEQ 127113
new line.CTR140509 bus1=BMT149431798.1.2.3,bus2=BMT149431805.1.2.3,Phases=3,LineCode=tieSwitch,Length=0.001,Units=km,switch=T !numEQ 22072
new line.CTR140530 bus1=BMT149432617.2,bus2=BMT149432620.2,Phases=1,LineCode=tieSwitch1,Length=0.001,Units=km,switch=T !numEQ 22444
new line.CTR140537 bus1=BMT163634921.3,bus2=BMT163635833.3,Phases=1,LineCode=tieSwitch1,Length=0.001,Units=km,switch=T !numEQ 134150
new line.CTR140796 bus1=BMT175516089.1.2.3,bus2=BMT126112382.1.2.3,Phases=3,LineCode=tieSwitch,Length=0.001,Units=km,switch=T !numEQ 57425
new line.CTR141139 bus1=BMT122309849.1,bus2=BMT122309877.1,Phases=1,LineCode=tieSwitch1,Length=0.001,Units=km,switch=T !numEQ 108437
new line.CTR147383 bus1=BMT175927995.1.2.3,bus2=BMT175927997.1.2.3,Phases=3,LineCode=tieSwitch,Length=0.001,Units=km,switch=T !numEQ 154722
new line.CTR147537 bus1=BMT163634453.2,bus2=BMT163636467.2,Phases=1,LineCode=tieSwitch1,Length=0.001,Units=km,switch=T !numEQ 122543
new line.CTR148454 bus1=BMT122309156.1,bus2=BMT122309170.1,Phases=1,LineCode=tieSwitch1,Length=0.001,Units=km,switch=T !numEQ 116313
new line.CTR14866 bus1=BMT172057799.1.2.3,bus2=BMT163634886.1.2.3,Phases=3,LineCode=tieSwitch,Length=0.001,Units=km,switch=T !numEQ 22883
new line.CTR154425 bus1=BMT175927802.1.2.3,bus2=BMT175927805.1.2.3,Phases=3,LineCode=tieSwitch,Length=0.001,Units=km,switch=T !numEQ 130927
new line.CTR154481 bus1=BMT163634999.3,bus2=BMT163635221.3,Phases=1,LineCode=tieSwitch1,Length=0.001,Units=km,switch=T !numEQ 23153
new line.CTR154586 bus1=BMT175921054.1.2.3,bus2=BMT175921189.1.2.3,Phases=3,LineCode=tieSwitch,Length=0.001,Units=km,switch=T !numEQ 104820
new line.CTR154845 bus1=BMT163634811.3,bus2=BMT163635983.3,Phases=1,LineCode=tieSwitch1,Length=0.001,Units=km,switch=T !numEQ 111828
new line.CTR131143 bus1=BMT122356196.3,bus2=BMT122364015.3,Phases=1,LineCode=tieSwitch1,Length=0.001,Units=km,switch=T !numEQ 23568
new line.CTR131150 bus1=BMT122363035.1,bus2=BMT157334703.1,Phases=1,LineCode=tieSwitch1,Length=0.001,Units=km,switch=T !numEQ 22886
new line.CTR131185 bus1=BMT163634845.1.2.3,bus2=BMT163634847.1.2.3,Phases=3,LineCode=tieSwitch,Length=0.001,Units=km,switch=T !numEQ 22292
new line.CTR131234 bus1=BMT122349791.1.2.3,bus2=BMT122349798.1.2.3,Phases=3,LineCode=tieSwitch,Length=0.001,Units=km,switch=T !numEQ 23306
new line.CTR131248 bus1=BMT122366871.1.2.3,bus2=BMT176507465.1.2.3,Phases=3,LineCode=tieSwitch,Length=0.001,Units=km,switch=T !numEQ 23319
new line.CTR131269 bus1=BMT173679371.1.2.3,bus2=BMT176264785.1.2.3,Phases=3,LineCode=tieSwitch,Length=0.001,Units=km,switch=T !numEQ 22415
new line.CTR131276 bus1=BMT122349595.1.2.3,bus2=BMT173749432.1.2.3,Phases=3,LineCode=tieSwitch,Length=0.001,Units=km,switch=T !numEQ 22330
new line.CTR131283 bus1=BMT122349917.1.2.3,bus2=BMT122366563.1.2.3,Phases=3,LineCode=tieSwitch,Length=0.001,Units=km,switch=T !numEQ 22743
new line.CTR131304 bus1=BMT163674437.1.2.3,bus2=BMT176021514.1.2.3,Phases=3,LineCode=tieSwitch,Length=0.001,Units=km,switch=T !numEQ 22986
new line.CTR131311 bus1=BMT122350218.1.2.3,bus2=BMT162679890.1.2.3,Phases=3,LineCode=tieSwitch,Length=0.001,Units=km,switch=T !numEQ 22987
new line.CTR131318 bus1=BMT143763792.1.2.3,bus2=BMT170526875.1.2.3,Phases=3,LineCode=tieSwitch,Length=0.001,Units=km,switch=T !numEQ 23353
new line.CTR131332 bus1=BMT122352164.1.2.3,bus2=BMT175615272.1.2.3,Phases=3,LineCode=tieSwitch,Length=0.001,Units=km,switch=T !numEQ 23613
new line.CTR131339 bus1=BMT122352199.1.2.3,bus2=BMT169314389.1.2.3,Phases=3,LineCode=tieSwitch,Length=0.001,Units=km,switch=T !numEQ 22123
new line.CTR131346 bus1=BMT122352234.1.2.3,bus2=BMT122352248.1.2.3,Phases=3,LineCode=tieSwitch,Length=0.001,Units=km,switch=T !numEQ 23343
new line.CTR131360 bus1=BMT122352549.1,bus2=BMT122364981.1,Phases=1,LineCode=tieSwitch1,Length=0.001,Units=km,switch=T !numEQ 98758
new line.CTR131367 bus1=BMT122352591.3,bus2=BMT122364939.3,Phases=1,LineCode=tieSwitch1,Length=0.001,Units=km,switch=T !numEQ 98756
new line.CTR131381 bus1=BMT122348559.1.2.3,bus2=BMT159859074.1.2.3,Phases=3,LineCode=tieSwitch,Length=0.001,Units=km,switch=T !numEQ 22348
new line.CTR131388 bus1=BMT122348636.1.2.3,bus2=BMT160336555.1.2.3,Phases=3,LineCode=tieSwitch,Length=0.001,Units=km,switch=T !numEQ 23229
new line.CTR131409 bus1=BMT122348783.1.2.3,bus2=BMT148405526.1.2.3,Phases=3,LineCode=tieSwitch,Length=0.001,Units=km,switch=T !numEQ 22022
new line.CTR131416 bus1=BMT122317493.1,bus2=BMT160125160.1,Phases=1,LineCode=tieSwitch1,Length=0.001,Units=km,switch=T !numEQ 130355
new line.CTR131563 bus1=BMT122356658.3,bus2=BMT122356686.3,Phases=1,LineCode=tieSwitch1,Length=0.001,Units=km,switch=T !numEQ 153423
new line.CTR131682 bus1=BMT122352759.2,bus2=BMT122353571.2,Phases=1,LineCode=tieSwitch1,Length=0.001,Units=km,switch=T !numEQ 147603
new line.CTR137716 bus1=BMT149432356.1,bus2=BMT149432358.1,Phases=1,LineCode=tieSwitch1,Length=0.001,Units=km,switch=T !numEQ 154510
new line.CTR13781 bus1=BMT122352619.1.2.3,bus2=BMT122364925.1.2.3,Phases=3,LineCode=tieSwitch,Length=0.001,Units=km,switch=T !numEQ 98761
new line.CTR137912 bus1=BMT163634798.1,bus2=BMT163636062.1,Phases=1,LineCode=tieSwitch1,Length=0.001,Units=km,switch=T !numEQ 108461
new line.CTR137940 bus1=BMT122372772.1.2.3,bus2=BMT122373185.1.2.3,Phases=3,LineCode=tieSwitch,Length=0.001,Units=km,switch=T !numEQ 154128
new line.CTR138164 bus1=BMT175927728.1.2.3,bus2=BMT175928131.1.2.3,Phases=3,LineCode=tieSwitch,Length=0.001,Units=km,switch=T !numEQ 154724
new line.CTR138276 bus1=BMT122350554.1.2.3,bus2=BMT162680560.1.2.3,Phases=3,LineCode=tieSwitch,Length=0.001,Units=km,switch=T !numEQ 23077
new line.CTR138297 bus1=BMT122350771.3,bus2=BMT122351814.3,Phases=1,LineCode=tieSwitch1,Length=0.001,Units=km,switch=T !numEQ 23084
new line.CTR138304 bus1=BMT122351002.1,bus2=BMT122351016.1,Phases=1,LineCode=tieSwitch1,Length=0.001,Units=km,switch=T !numEQ 23086
new line.CTR138311 bus1=BMT122351429.1,bus2=BMT175579645.1,Phases=1,LineCode=tieSwitch1,Length=0.001,Units=km,switch=T !numEQ 40
new line.CTR138360 bus1=BMT122372282.1.2.3,bus2=BMT122374284.1.2.3,Phases=3,LineCode=tieSwitch,Length=0.001,Units=km,switch=T !numEQ 22746
new line.CTR138395 bus1=BMT157006338.1.2.3,bus2=BMT161259562.1.2.3,Phases=3,LineCode=tieSwitch,Length=0.001,Units=km,switch=T !numEQ 155658
new line.CTR138430 bus1=BMT122309415.1.2.3,bus2=BMT122309429.1.2.3,Phases=3,LineCode=tieSwitch,Length=0.001,Units=km,switch=T !numEQ 135537
new line.CTR138563 bus1=BMT163636644.1.2.3,bus2=BMT175889260.1.2.3,Phases=3,LineCode=tieSwitch,Length=0.001,Units=km,switch=T !numEQ 126881
new line.CTR138591 bus1=BMT122309961.2,bus2=BMT122312649.2,Phases=1,LineCode=tieSwitch1,Length=0.001,Units=km,switch=T !numEQ 23642
new line.CTR139123 bus1=BMT163634310.1.2.3,bus2=BMT163634312.1.2.3,Phases=3,LineCode=tieSwitch,Length=0.001,Units=km,switch=T !numEQ 58996
new line.CTR139137 bus1=BMT163634264.2,bus2=BMT172891424.2,Phases=1,LineCode=tieSwitch1,Length=0.001,Units=km,switch=T !numEQ 58990
new line.CTR145010 bus1=BMT173771956.3,bus2=BMT176423141.3,Phases=1,LineCode=tieSwitch1,Length=0.001,Units=km,switch=T !numEQ 119684
new line.CTR14572 bus1=BMT163636870.2,bus2=BMT163636920.2,Phases=1,LineCode=tieSwitch1,Length=0.001,Units=km,switch=T !numEQ 141170
new line.CTR151037 bus1=BMT122306314.1,bus2=BMT161180377.1,Phases=1,LineCode=tieSwitch1,Length=0.001,Units=km,switch=T !numEQ 110592
new line.CTR15125 bus1=BMT122306419.1,bus2=BMT122307560.1,Phases=1,LineCode=tieSwitch1,Length=0.001,Units=km,switch=T !numEQ 124387
new line.CTR151457 bus1=BMT122356077.2,bus2=BMT122364190.2,Phases=1,LineCode=tieSwitch1,Length=0.001,Units=km,switch=T !numEQ 22850
new line.CTR151905 bus1=BMT122315582.3,bus2=BMT122315722.3,Phases=1,LineCode=tieSwitch1,Length=0.001,Units=km,switch=T !numEQ 124616
new line.CTR151933 bus1=BMT171308134.3,bus2=BMT173458840.3,Phases=1,LineCode=tieSwitch1,Length=0.001,Units=km,switch=T !numEQ 112210
new line.CTR15636 bus1=BMT122355944.3,bus2=BMT122364491.3,Phases=1,LineCode=tieSwitch1,Length=0.001,Units=km,switch=T !numEQ 131245
new line.CTR156378 bus1=BMT167665780.1.2.3,bus2=BMT167665839.1.2.3,Phases=3,LineCode=tieSwitch,Length=0.001,Units=km,switch=T !numEQ 127953
new line.CTR102324 bus1=BMT175921002.1.2.3,bus2=BMT175921012.1.2.3,Phases=3,LineCode=tieSwitch,Length=0.001,Units=km,switch=T !numEQ 110596
new line.CTR10309 bus1=BMT163634862.1.2.3,bus2=BMT172245447.1.2.3,Phases=3,LineCode=tieSwitch,Length=0.001,Units=km,switch=T !numEQ 268614
new line.CTR10834 bus1=BMT163634711.2,bus2=BMT163636361.2,Phases=1,LineCode=tieSwitch1,Length=0.001,Units=km,switch=T !numEQ 119685
new line.CTR10848 bus1=BMT163636336.1,bus2=BMT163636342.1,Phases=1,LineCode=tieSwitch1,Length=0.001,Units=km,switch=T !numEQ 119687
new line.CTR10855 bus1=BMT163636371.3,bus2=BMT163636374.3,Phases=1,LineCode=tieSwitch1,Length=0.001,Units=km,switch=T !numEQ 119688
new line.CTR108995 bus1=BMT163636778.3,bus2=BMT163637062.3,Phases=1,LineCode=tieSwitch1,Length=0.001,Units=km,switch=T !numEQ 93645
new line.CTR109009 bus1=BMT122353872.2,bus2=BMT122354243.2,Phases=1,LineCode=tieSwitch1,Length=0.001,Units=km,switch=T !numEQ 59419
new line.CTR109254 bus1=BMT122348538.1.2.3,bus2=BMT156347788.1.2.3,Phases=3,LineCode=tieSwitch,Length=0.001,Units=km,switch=T !numEQ 22347
new line.CTR109289 bus1=BMT122350351.1.2.3,bus2=BMT172694638.1.2.3,Phases=3,LineCode=tieSwitch,Length=0.001,Units=km,switch=T !numEQ 22118
new line.CTR109324 bus1=BMT122305999.1.2.3,bus2=BMT122317241.1.2.3,Phases=3,LineCode=tieSwitch,Length=0.001,Units=km,switch=T !numEQ 124603
new line.CTR109534 bus1=BMT163635260.1.2.3,bus2=BMT163635780.1.2.3,Phases=3,LineCode=tieSwitch,Length=0.001,Units=km,switch=T !numEQ 22429
new line.CTR109548 bus1=BMT175927749.1.2.3,bus2=BMT157006027.1.2.3,Phases=3,LineCode=tieSwitch,Length=0.001,Units=km,switch=T !numEQ 153707
open line.CTR109548 term=1
new line.CTR115337 bus1=BMT122373563.1.2.3,bus2=BMT172690652.1.2.3,Phases=3,LineCode=tieSwitch,Length=0.001,Units=km,switch=T !numEQ 130569
new line.CTR115344 bus1=BMT122373654.1.2.3,bus2=BMT176325995.1.2.3,Phases=3,LineCode=tieSwitch,Length=0.001,Units=km,switch=T !numEQ 130570
new line.CTR115407 bus1=BMT153209369.3,bus2=BMT158437435.3,Phases=1,LineCode=tieSwitch1,Length=0.001,Units=km,switch=T !numEQ 125450
new line.CTR11541 bus1=BMT149432238.1.2.3,bus2=BMT149432297.1.2.3,Phases=3,LineCode=tieSwitch,Length=0.001,Units=km,switch=T !numEQ 22543
new line.CTR115666 bus1=BMT122315953.1,bus2=BMT122316030.1,Phases=1,LineCode=tieSwitch1,Length=0.001,Units=km,switch=T !numEQ 124623
new line.CTR1209 bus1=BMT176507470.1.2.3,bus2=BMT122366934.1.2.3,Phases=3,LineCode=tieSwitch,Length=0.001,Units=km,switch=T !numEQ 23321
open line.CTR1209 term=1
new line.CTR121336 bus1=BMT163635862.2,bus2=BMT163635936.2,Phases=1,LineCode=tieSwitch1,Length=0.001,Units=km,switch=T !numEQ 116948
new line.CTR121518 bus1=BMT163635878.2,bus2=BMT163635884.2,Phases=1,LineCode=tieSwitch1,Length=0.001,Units=km,switch=T !numEQ 23283
new line.CTR121539 bus1=BMT163635877.2,bus2=BMT163635908.2,Phases=1,LineCode=tieSwitch1,Length=0.001,Units=km,switch=T !numEQ 154220
new line.CTR121630 bus1=BMT163637365.3,bus2=BMT163637367.3,Phases=1,LineCode=tieSwitch1,Length=0.001,Units=km,switch=T !numEQ 126544
new line.CTR121847 bus1=BMT156380795.1.2.3,bus2=BMT156380849.1.2.3,Phases=3,LineCode=tieSwitch,Length=0.001,Units=km,switch=T !numEQ 131738
new line.CTR121875 bus1=BMT163637193.3,bus2=BMT163637293.3,Phases=1,LineCode=tieSwitch1,Length=0.001,Units=km,switch=T !numEQ 23550
new line.CTR135623 bus1=BMT122360823.3,bus2=BMT145952482.3,Phases=1,LineCode=tieSwitch1,Length=0.001,Units=km,switch=T !numEQ 136312
new line.CTR13571 bus1=BMT154876316.2,bus2=BMT164920159.2,Phases=1,LineCode=tieSwitch1,Length=0.001,Units=km,switch=T !numEQ 127129
new line.CTR13578 bus1=BMT175922308.1.2.3,bus2=BMT175922309.1.2.3,Phases=3,LineCode=tieSwitch,Length=0.001,Units=km,switch=T !numEQ 23182
new line.CTR135826 bus1=BMT122372779.1.2.3,bus2=BMT122372786.1.2.3,Phases=3,LineCode=tieSwitch,Length=0.001,Units=km,switch=T !numEQ 198844
new line.CTR135847 bus1=BMT122309744.2,bus2=BMT122313202.2,Phases=1,LineCode=tieSwitch1,Length=0.001,Units=km,switch=T !numEQ 107954
new line.CTR13599 bus1=BMT175921756.1.2.3,bus2=BMT175921632.1.2.3,Phases=3,LineCode=tieSwitch,Length=0.001,Units=km,switch=T !numEQ 23234
open line.CTR13599 term=1
new line.CTR13613 bus1=BMT175922328.1.2.3,bus2=BMT175922335.1.2.3,Phases=3,LineCode=tieSwitch,Length=0.001,Units=km,switch=T !numEQ 22626
new line.CTR136176 bus1=BMT175887374.3,bus2=BMT175887435.3,Phases=1,LineCode=tieSwitch1,Length=0.001,Units=km,switch=T !numEQ 155116
new line.CTR136246 bus1=BMT163634521.1,bus2=BMT173297040.1,Phases=1,LineCode=tieSwitch1,Length=0.001,Units=km,switch=T !numEQ 116232
new line.CTR13627 bus1=BMT175885383.1.2.3,bus2=BMT176424092.1.2.3,Phases=3,LineCode=tieSwitch,Length=0.001,Units=km,switch=T !numEQ 22134
new line.CTR13634 bus1=BMT163634226.3,bus2=BMT163637457.3,Phases=1,LineCode=tieSwitch1,Length=0.001,Units=km,switch=T !numEQ 152820
new line.CTR13676 bus1=BMT164297839.3,bus2=BMT164297840.3,Phases=1,LineCode=tieSwitch1,Length=0.001,Units=km,switch=T !numEQ 22528
new line.CTR136785 bus1=BMT157348144.1.2.3,bus2=BMT157348353.1.2.3,Phases=3,LineCode=tieSwitch,Length=0.001,Units=km,switch=T !numEQ 130928
new line.CTR143260 bus1=BMT122313370.2,bus2=BMT122313391.2,Phases=1,LineCode=tieSwitch1,Length=0.001,Units=km,switch=T !numEQ 155563
new line.CTR143687 bus1=BMT175927861.1.2.3,bus2=BMT175928010.1.2.3,Phases=3,LineCode=tieSwitch,Length=0.001,Units=km,switch=T !numEQ 57362
new line.CTR143778 bus1=BMT163636127.1,bus2=BMT163636140.1,Phases=1,LineCode=tieSwitch1,Length=0.001,Units=km,switch=T !numEQ 111829
new line.CTR143918 bus1=BMT163635605.1.2.3,bus2=BMT163635609.1.2.3,Phases=3,LineCode=tieSwitch,Length=0.001,Units=km,switch=T !numEQ 102959
new line.CTR153130 bus1=BMT163635025.3,bus2=BMT163635030.3,Phases=1,LineCode=tieSwitch1,Length=0.001,Units=km,switch=T !numEQ 196560
new line.CTR15328 bus1=BMT122307987.1,bus2=BMT133984617.1,Phases=1,LineCode=tieSwitch1,Length=0.001,Units=km,switch=T !numEQ 124606
new line.CTR15342 bus1=BMT122360753.3,bus2=BMT122362447.3,Phases=1,LineCode=tieSwitch1,Length=0.001,Units=km,switch=T !numEQ 133899
new line.CTR153823 bus1=BMT163635354.2,bus2=BMT163635691.2,Phases=1,LineCode=tieSwitch1,Length=0.001,Units=km,switch=T !numEQ 102961
new line.CTR153830 bus1=BMT122364323.1,bus2=BMT167560231.1,Phases=1,LineCode=tieSwitch1,Length=0.001,Units=km,switch=T !numEQ 100837
new line.CTR153837 bus1=BMT153358494.1.2.3,bus2=BMT157329679.1.2.3,Phases=3,LineCode=tieSwitch,Length=0.001,Units=km,switch=T !numEQ 152128
new line.CTR15398 bus1=BMT167113106.1.2.3,bus2=BMT122371925.1.2.3,Phases=3,LineCode=tieSwitch,Length=0.001,Units=km,switch=T !numEQ 136892
new line.CTR155034 bus1=BMT122357694.1.2.3,bus2=BMT135107165.1.2.3,Phases=3,LineCode=tieSwitch,Length=0.001,Units=km,switch=T !numEQ 22881
new line.CTR155041 bus1=BMT163635324.1.2.3,bus2=BMT163635325.1.2.3,Phases=3,LineCode=tieSwitch,Length=0.001,Units=km,switch=T !numEQ 22678
new line.CTR15517 bus1=BMT175927695.1.2.3,bus2=BMT175927696.1.2.3,Phases=3,LineCode=tieSwitch,Length=0.001,Units=km,switch=T !numEQ 136895
new line.CTR155265 bus1=BMT122308918.2,bus2=BMT122314126.2,Phases=1,LineCode=tieSwitch1,Length=0.001,Units=km,switch=T !numEQ 111825
new line.CTR155356 bus1=BMT156005155.3,bus2=BMT176417016.3,Phases=1,LineCode=tieSwitch1,Length=0.001,Units=km,switch=T !numEQ 111826
new line.CTR155398 bus1=BMT163634303.2,bus2=BMT163636512.2,Phases=1,LineCode=tieSwitch1,Length=0.001,Units=km,switch=T !numEQ 119706
new line.CTR155405 bus1=BMT122349308.1.2.3,bus2=BMT173749890.1.2.3,Phases=3,LineCode=tieSwitch,Length=0.001,Units=km,switch=T !numEQ 22144
new line.CTR155426 bus1=BMT122349182.1.2.3,bus2=BMT171949569.1.2.3,Phases=3,LineCode=tieSwitch,Length=0.001,Units=km,switch=T !numEQ 22066
new line.CTR155433 bus1=BMT149431702.1.2.3,bus2=BMT151482671.1.2.3,Phases=3,LineCode=tieSwitch,Length=0.001,Units=km,switch=T !numEQ 22163
new line.CTR155440 bus1=BMT149431697.1.2.3,bus2=BMT151476607.1.2.3,Phases=3,LineCode=tieSwitch,Length=0.001,Units=km,switch=T !numEQ 23202
new line.CTR155447 bus1=BMT149431986.1.2.3,bus2=BMT149431698.1.2.3,Phases=3,LineCode=tieSwitch,Length=0.001,Units=km,switch=T !numEQ 22132
open line.CTR155447 term=1
new line.CTR155454 bus1=BMT122349560.1.2.3,bus2=BMT172090479.1.2.3,Phases=3,LineCode=tieSwitch,Length=0.001,Units=km,switch=T !numEQ 22160
new line.CTR155496 bus1=BMT160336557.1.2.3,bus2=BMT2161752.1.2.3,Phases=3,LineCode=tieSwitch,Length=0.001,Units=km,switch=T !numEQ 22447
open line.CTR155496 term=1
new line.CTR155510 bus1=BMT122372387.1.2.3,bus2=BMT133335304.1.2.3,Phases=3,LineCode=tieSwitch,Length=0.001,Units=km,switch=T !numEQ 120052
new line.CTR155566 bus1=BMT122356273.2,bus2=BMT122356861.2,Phases=1,LineCode=tieSwitch1,Length=0.001,Units=km,switch=T !numEQ 107006
new line.CTR155783 bus1=BMT163634997.3,bus2=BMT170167307.3,Phases=1,LineCode=tieSwitch1,Length=0.001,Units=km,switch=T !numEQ 22878
new line.CTR155853 bus1=BMT175921836.1.2.3,bus2=BMT175921838.1.2.3,Phases=3,LineCode=tieSwitch,Length=0.001,Units=km,switch=T !numEQ 117271
new line.CTR15601 bus1=BMT163635824.1,bus2=BMT163635827.1,Phases=1,LineCode=tieSwitch1,Length=0.001,Units=km,switch=T !numEQ 131242
new line.CTR156070 bus1=BMT122307630.1,bus2=BMT173645638.1,Phases=1,LineCode=tieSwitch1,Length=0.001,Units=km,switch=T !numEQ 127463
new line.CTR156077 bus1=BMT163634708.3,bus2=BMT163634718.3,Phases=1,LineCode=tieSwitch1,Length=0.001,Units=km,switch=T !numEQ 127464
new line.CTR15608 bus1=BMT122363294.1,bus2=BMT122363427.1,Phases=1,LineCode=tieSwitch1,Length=0.001,Units=km,switch=T !numEQ 131243
new line.CTR160200 bus1=BMT122357680.3,bus2=BMT122362804.3,Phases=1,LineCode=tieSwitch1,Length=0.001,Units=km,switch=T !numEQ 107981
new line.CTR160403 bus1=BMT122373367.1.2.3,bus2=BMT122373535.1.2.3,Phases=3,LineCode=tieSwitch,Length=0.001,Units=km,switch=T !numEQ 126876
new line.CTR160410 bus1=BMT122373423.1.2.3,bus2=BMT150365440.1.2.3,Phases=3,LineCode=tieSwitch,Length=0.001,Units=km,switch=T !numEQ 23372
new line.CTR160550 bus1=BMT175922193.1.2.3,bus2=BMT175922370.1.2.3,Phases=3,LineCode=tieSwitch,Length=0.001,Units=km,switch=T !numEQ 22031
new line.CTR160739 bus1=BMT122306867.1,bus2=BMT165437901.1,Phases=1,LineCode=tieSwitch1,Length=0.001,Units=km,switch=T !numEQ 40945
new line.CTR160830 bus1=BMT161003975.1.2.3,bus2=BMT158853844.1.2.3,Phases=3,LineCode=tieSwitch,Length=0.001,Units=km,switch=T !numEQ 107378
new line.CTR160914 bus1=BMT122352878.2,bus2=BMT175006917.2,Phases=1,LineCode=tieSwitch1,Length=0.001,Units=km,switch=T !numEQ 107144
new line.CTR16098 bus1=BMT163635306.1.2.3,bus2=BMT163635307.1.2.3,Phases=3,LineCode=tieSwitch,Length=0.001,Units=km,switch=T !numEQ 22683
open line.CTR16098 term=1
new line.CTR16112 bus1=BMT174105786.1.2.3,bus2=BMT163635315.1.2.3,Phases=3,LineCode=tieSwitch,Length=0.001,Units=km,switch=T !numEQ 22674
new line.CTR161278 bus1=BMT163636177.3,bus2=BMT163636183.3,Phases=1,LineCode=tieSwitch1,Length=0.001,Units=km,switch=T !numEQ 201818
new line.CTR161698 bus1=BMT175921833.1.2.3,bus2=BMT176666385.1.2.3,Phases=3,LineCode=tieSwitch,Length=0.001,Units=km,switch=T !numEQ 155469
new line.CTR161712 bus1=BMT122356245.2,bus2=BMT122363525.2,Phases=1,LineCode=tieSwitch1,Length=0.001,Units=km,switch=T !numEQ 153735
new line.CTR161719 bus1=BMT122364344.1,bus2=BMT122364414.1,Phases=1,LineCode=tieSwitch1,Length=0.001,Units=km,switch=T !numEQ 154000
new line.CTR161775 bus1=BMT122312201.1,bus2=BMT122312222.1,Phases=1,LineCode=tieSwitch1,Length=0.001,Units=km,switch=T !numEQ 196551
new line.CTR161782 bus1=BMT161274179.3,bus2=BMT161274187.3,Phases=1,LineCode=tieSwitch1,Length=0.001,Units=km,switch=T !numEQ 23959
new line.CTR161789 bus1=BMT126112417.1.2.3,bus2=BMT126112424.1.2.3,Phases=3,LineCode=tieSwitch,Length=0.001,Units=km,switch=T !numEQ 22858
new line.CTR167606 bus1=BMT175921953.1.2.3,bus2=BMT175921958.1.2.3,Phases=3,LineCode=tieSwitch,Length=0.001,Units=km,switch=T !numEQ 151759
new line.CTR167627 bus1=BMT149432446.1,bus2=BMT149432448.1,Phases=1,LineCode=tieSwitch1,Length=0.001,Units=km,switch=T !numEQ 142441
new line.CTR167662 bus1=BMT122314175.1.2.3,bus2=BMT122314630.1.2.3,Phases=3,LineCode=tieSwitch,Length=0.001,Units=km,switch=T !numEQ 25989
new line.CTR167718 bus1=BMT122355489.2,bus2=BMT157907394.2,Phases=1,LineCode=tieSwitch1,Length=0.001,Units=km,switch=T !numEQ 190375
new line.CTR167725 bus1=BMT122314238.1.2.3,bus2=BMT122314329.1.2.3,Phases=3,LineCode=tieSwitch,Length=0.001,Units=km,switch=T !numEQ 22909
new line.CTR167977 bus1=BMT175921866.1.2.3,bus2=BMT176077614.1.2.3,Phases=3,LineCode=tieSwitch,Length=0.001,Units=km,switch=T !numEQ 201535
new line.CTR167991 bus1=BMT122356378.3,bus2=BMT122356455.3,Phases=1,LineCode=tieSwitch1,Length=0.001,Units=km,switch=T !numEQ 144476
new line.CTR168040 bus1=BMT149432005.1.2.3,bus2=BMT176300897.1.2.3,Phases=3,LineCode=tieSwitch,Length=0.001,Units=km,switch=T !numEQ 155660
new line.CTR168047 bus1=BMT122314343.3,bus2=BMT161335396.3,Phases=1,LineCode=tieSwitch1,Length=0.001,Units=km,switch=T !numEQ 121860
new line.CTR168159 bus1=BMT175927729.1.2.3,bus2=BMT175928128.1.2.3,Phases=3,LineCode=tieSwitch,Length=0.001,Units=km,switch=T !numEQ 153576
new line.CTR142672 bus1=BMT122357827.1.2.3,bus2=BMT162677677.1.2.3,Phases=3,LineCode=tieSwitch,Length=0.001,Units=km,switch=T !numEQ 22867
new line.CTR142763 bus1=BMT163635072.3,bus2=BMT163635075.3,Phases=1,LineCode=tieSwitch1,Length=0.001,Units=km,switch=T !numEQ 134152
new line.CTR143036 bus1=BMT149432369.1.2.3,bus2=BMT149432556.1.2.3,Phases=3,LineCode=tieSwitch,Length=0.001,Units=km,switch=T !numEQ 23377
new line.CTR148776 bus1=BMT157348245.1.2.3,bus2=BMT157348247.1.2.3,Phases=3,LineCode=tieSwitch,Length=0.001,Units=km,switch=T !numEQ 142905
new line.CTR14894 bus1=BMT122362811.3,bus2=BMT122362825.3,Phases=1,LineCode=tieSwitch1,Length=0.001,Units=km,switch=T !numEQ 136257
new line.CTR149231 bus1=BMT157828743.1.2.3,bus2=BMT161229569.1.2.3,Phases=3,LineCode=tieSwitch,Length=0.001,Units=km,switch=T !numEQ 154478
new line.CTR14999 bus1=BMT122307721.1,bus2=BMT122307735.1,Phases=1,LineCode=tieSwitch1,Length=0.001,Units=km,switch=T !numEQ 136320
new line.CTR150330 bus1=BMT163634895.1.2.3,bus2=BMT122357120.1.2.3,Phases=3,LineCode=tieSwitch,Length=0.001,Units=km,switch=T !numEQ 22326
open line.CTR150330 term=1
new line.CTR158324 bus1=BMT122349231.1.2.3,bus2=BMT173127157.1.2.3,Phases=3,LineCode=tieSwitch,Length=0.001,Units=km,switch=T !numEQ 23046
new line.CTR158352 bus1=BMT122366724.1.2.3,bus2=BMT175520381.1.2.3,Phases=3,LineCode=tieSwitch,Length=0.001,Units=km,switch=T !numEQ 22994
new line.CTR158373 bus1=BMT122372919.1.2.3,bus2=BMT122372926.1.2.3,Phases=3,LineCode=tieSwitch,Length=0.001,Units=km,switch=T !numEQ 120088
new line.CTR158464 bus1=BMT122372898.1.2.3,bus2=BMT158080529.1.2.3,Phases=3,LineCode=tieSwitch,Length=0.001,Units=km,switch=T !numEQ 120087
new line.CTR158611 bus1=BMT175927730.1.2.3,bus2=BMT175928126.1.2.3,Phases=3,LineCode=tieSwitch,Length=0.001,Units=km,switch=T !numEQ 127125
new line.CTR158618 bus1=BMT163637084.1,bus2=BMT163637090.1,Phases=1,LineCode=tieSwitch1,Length=0.001,Units=km,switch=T !numEQ 58320
new line.CTR158632 bus1=BMT163637211.3,bus2=BMT173457065.3,Phases=1,LineCode=tieSwitch1,Length=0.001,Units=km,switch=T !numEQ 23551
new line.CTR158639 bus1=BMT163637214.3,bus2=BMT163637280.3,Phases=1,LineCode=tieSwitch1,Length=0.001,Units=km,switch=T !numEQ 23552
new line.CTR158646 bus1=BMT163637219.3,bus2=BMT165824750.3,Phases=1,LineCode=tieSwitch1,Length=0.001,Units=km,switch=T !numEQ 23555
new line.CTR158667 bus1=BMT163637343.3,bus2=BMT164297830.3,Phases=1,LineCode=tieSwitch1,Length=0.001,Units=km,switch=T !numEQ 100946
new line.CTR15867 bus1=BMT122348678.1.2.3,bus2=BMT175863597.1.2.3,Phases=3,LineCode=tieSwitch,Length=0.001,Units=km,switch=T !numEQ 133715
new line.CTR15902 bus1=BMT157348208.1.2.3,bus2=BMT157348209.1.2.3,Phases=3,LineCode=tieSwitch,Length=0.001,Units=km,switch=T !numEQ 385653
open line.CTR15902 term=1
new line.CTR15930 bus1=BMT122371869.1.2.3,bus2=BMT167113102.1.2.3,Phases=3,LineCode=tieSwitch,Length=0.001,Units=km,switch=T !numEQ 136237
new line.CTR159360 bus1=BMT122367312.1.2.3,bus2=BMT122367319.1.2.3,Phases=3,LineCode=tieSwitch,Length=0.001,Units=km,switch=T !numEQ 138945
new line.CTR159808 bus1=BMT163634473.2,bus2=BMT163636443.2,Phases=1,LineCode=tieSwitch1,Length=0.001,Units=km,switch=T !numEQ 122537
new line.CTR159822 bus1=BMT163636447.3,bus2=BMT163636459.3,Phases=1,LineCode=tieSwitch1,Length=0.001,Units=km,switch=T !numEQ 122539
new line.CTR159829 bus1=BMT163636448.3,bus2=BMT163636457.3,Phases=1,LineCode=tieSwitch1,Length=0.001,Units=km,switch=T !numEQ 122540
new line.CTR159836 bus1=BMT163636451.1,bus2=BMT163636455.1,Phases=1,LineCode=tieSwitch1,Length=0.001,Units=km,switch=T !numEQ 122541
new line.CTR159843 bus1=BMT163634467.1.2.3,bus2=BMT163636465.1.2.3,Phases=3,LineCode=tieSwitch,Length=0.001,Units=km,switch=T !numEQ 122542
new line.CTR159857 bus1=BMT175470228.1.2.3,bus2=BMT163634443.1.2.3,Phases=3,LineCode=tieSwitch,Length=0.001,Units=km,switch=T !numEQ 122544
new line.CTR159864 bus1=BMT163636850.2,bus2=BMT163636855.2,Phases=1,LineCode=tieSwitch1,Length=0.001,Units=km,switch=T !numEQ 122545
new line.CTR159906 bus1=BMT163636875.2,bus2=BMT163636926.2,Phases=1,LineCode=tieSwitch1,Length=0.001,Units=km,switch=T !numEQ 122547
new line.CTR16959 bus1=BMT149432559.2,bus2=BMT149432560.2,Phases=1,LineCode=tieSwitch1,Length=0.001,Units=km,switch=T !numEQ 136319
new line.CTR169720 bus1=BMT175921825.1.2.3,bus2=BMT175922073.1.2.3,Phases=3,LineCode=tieSwitch,Length=0.001,Units=km,switch=T !numEQ 153079
new line.CTR169923 bus1=BMT122350274.1.2.3,bus2=BMT150344495.1.2.3,Phases=3,LineCode=tieSwitch,Length=0.001,Units=km,switch=T !numEQ 141554
new line.CTR170035 bus1=BMT158973587.1,bus2=BMT158973596.1,Phases=1,LineCode=tieSwitch1,Length=0.001,Units=km,switch=T !numEQ 100978
new line.CTR170224 bus1=BMT170395330.2,bus2=BMT170395331.2,Phases=1,LineCode=tieSwitch1,Length=0.001,Units=km,switch=T !numEQ 124671
new line.CTR170245 bus1=BMT122314056.2,bus2=BMT122314084.2,Phases=1,LineCode=tieSwitch1,Length=0.001,Units=km,switch=T !numEQ 117385
new line.CTR170252 bus1=BMT122313979.2,bus2=BMT122314000.2,Phases=1,LineCode=tieSwitch1,Length=0.001,Units=km,switch=T !numEQ 117384
new line.CTR170273 bus1=BMT176282697.1.2.3,bus2=BMT175575595.1.2.3,Phases=3,LineCode=tieSwitch,Length=0.001,Units=km,switch=T !numEQ 23529
new line.CTR170287 bus1=BMT122309310.1.2.3,bus2=BMT150575160.1.2.3,Phases=3,LineCode=tieSwitch,Length=0.001,Units=km,switch=T !numEQ 23532
new line.CTR170336 bus1=BMT163636779.1,bus2=BMT163849055.1,Phases=1,LineCode=tieSwitch1,Length=0.001,Units=km,switch=T !numEQ 122597
new line.CTR170448 bus1=BMT122305803.1.2.3,bus2=BMT122318550.1.2.3,Phases=3,LineCode=tieSwitch,Length=0.001,Units=km,switch=T !numEQ 22089
new line.CTR170455 bus1=BMT122316618.3,bus2=BMT122317017.3,Phases=1,LineCode=tieSwitch1,Length=0.001,Units=km,switch=T !numEQ 124651
new line.CTR170462 bus1=BMT122316681.3,bus2=BMT155786271.3,Phases=1,LineCode=tieSwitch1,Length=0.001,Units=km,switch=T !numEQ 22091
new line.CTR170476 bus1=BMT122355111.2,bus2=BMT171206602.2,Phases=1,LineCode=tieSwitch1,Length=0.001,Units=km,switch=T !numEQ 152765
new line.CTR170525 bus1=BMT122372674.1.2.3,bus2=BMT122373269.1.2.3,Phases=3,LineCode=tieSwitch,Length=0.001,Units=km,switch=T !numEQ 100984
new line.CTR170546 bus1=BMT157348147.1.2.3,bus2=BMT157348351.1.2.3,Phases=3,LineCode=tieSwitch,Length=0.001,Units=km,switch=T !numEQ 130929
new line.CTR170770 bus1=BMT122309177.1,bus2=BMT122309198.1,Phases=1,LineCode=tieSwitch1,Length=0.001,Units=km,switch=T !numEQ 135934
new line.CTR156399 bus1=BMT122318060.1.2.3,bus2=BMT173185155.1.2.3,Phases=3,LineCode=tieSwitch,Length=0.001,Units=km,switch=T !numEQ 127449
new line.CTR15643 bus1=BMT171308558.3,bus2=BMT171308572.3,Phases=1,LineCode=tieSwitch1,Length=0.001,Units=km,switch=T !numEQ 131246
new line.CTR15650 bus1=BMT163634930.3,bus2=BMT163634932.3,Phases=1,LineCode=tieSwitch1,Length=0.001,Units=km,switch=T !numEQ 131247
new line.CTR15657 bus1=BMT175927690.1.2.3,bus2=BMT122371876.1.2.3,Phases=3,LineCode=tieSwitch,Length=0.001,Units=km,switch=T !numEQ 137137
open line.CTR15657 term=1
new line.CTR156581 bus1=BMT122318256.1.2.3,bus2=BMT122318347.1.2.3,Phases=3,LineCode=tieSwitch,Length=0.001,Units=km,switch=T !numEQ 22114
new line.CTR156686 bus1=BMT175927791.1.2.3,bus2=BMT175927792.1.2.3,Phases=3,LineCode=tieSwitch,Length=0.001,Units=km,switch=T !numEQ 22469
new line.CTR156819 bus1=BMT122312173.1,bus2=BMT122312187.1,Phases=1,LineCode=tieSwitch1,Length=0.001,Units=km,switch=T !numEQ 77874
new line.CTR157330 bus1=BMT122358485.3,bus2=BMT154609274.3,Phases=1,LineCode=tieSwitch1,Length=0.001,Units=km,switch=T !numEQ 115901
new line.CTR157365 bus1=BMT122361089.3,bus2=BMT122362188.3,Phases=1,LineCode=tieSwitch1,Length=0.001,Units=km,switch=T !numEQ 108393
new line.CTR157729 bus1=BMT122355006.2,bus2=BMT122355048.2,Phases=1,LineCode=tieSwitch1,Length=0.001,Units=km,switch=T !numEQ 110551
new line.CTR157904 bus1=BMT149432398.1.2.3,bus2=BMT174808430.1.2.3,Phases=3,LineCode=tieSwitch,Length=0.001,Units=km,switch=T !numEQ 110033
new line.CTR164246 bus1=BMT122315932.1,bus2=BMT122316044.1,Phases=1,LineCode=tieSwitch1,Length=0.001,Units=km,switch=T !numEQ 196493
new line.CTR164295 bus1=BMT175927999.1.2.3,bus2=BMT175928000.1.2.3,Phases=3,LineCode=tieSwitch,Length=0.001,Units=km,switch=T !numEQ 154718
new line.CTR164400 bus1=BMT175921017.1.2.3,bus2=BMT174921003.1.2.3,Phases=3,LineCode=tieSwitch,Length=0.001,Units=km,switch=T !numEQ 117257
open line.CTR164400 term=1
new line.CTR164694 bus1=BMT175922036.2,bus2=BMT175922037.2,Phases=1,LineCode=tieSwitch1,Length=0.001,Units=km,switch=T !numEQ 124666
new line.CTR165114 bus1=BMT163635671.2,bus2=BMT163635672.2,Phases=1,LineCode=tieSwitch1,Length=0.001,Units=km,switch=T !numEQ 133884
new line.CTR165527 bus1=BMT122317157.1,bus2=BMT175149820.1,Phases=1,LineCode=tieSwitch1,Length=0.001,Units=km,switch=T !numEQ 199912
new line.CTR16588 bus1=BMT163635265.1.2.3,bus2=BMT163635266.1.2.3,Phases=3,LineCode=tieSwitch,Length=0.001,Units=km,switch=T !numEQ 22669
new line.CTR16595 bus1=BMT163635270.1.2.3,bus2=BMT174105709.1.2.3,Phases=3,LineCode=tieSwitch,Length=0.001,Units=km,switch=T !numEQ 22990
new line.CTR166430 bus1=BMT163636624.1.2.3,bus2=BMT163637377.1.2.3,Phases=3,LineCode=tieSwitch,Length=0.001,Units=km,switch=T !numEQ 22655
new line.CTR166549 bus1=BMT122313552.1,bus2=BMT122313566.1,Phases=1,LineCode=tieSwitch1,Length=0.001,Units=km,switch=T !numEQ 152112
new line.CTR166556 bus1=BMT122313482.1.2.3,bus2=BMT159415810.1.2.3,Phases=3,LineCode=tieSwitch,Length=0.001,Units=km,switch=T !numEQ 22844
new line.CTR166563 bus1=BMT163634953.1,bus2=BMT163634955.1,Phases=1,LineCode=tieSwitch1,Length=0.001,Units=km,switch=T !numEQ 125831
new line.CTR166570 bus1=BMT122313601.3,bus2=BMT122313699.3,Phases=1,LineCode=tieSwitch1,Length=0.001,Units=km,switch=T !numEQ 23656
new line.CTR166584 bus1=BMT122313748.3,bus2=BMT122313755.3,Phases=1,LineCode=tieSwitch1,Length=0.001,Units=km,switch=T !numEQ 134678
new line.CTR166619 bus1=BMT160080544.3,bus2=BMT160080551.3,Phases=1,LineCode=tieSwitch1,Length=0.001,Units=km,switch=T !numEQ 112207
new line.CTR166626 bus1=BMT163635043.3,bus2=BMT163635219.3,Phases=1,LineCode=tieSwitch1,Length=0.001,Units=km,switch=T !numEQ 100838
new line.CTR166696 bus1=BMT122357939.3,bus2=BMT168564765.3,Phases=1,LineCode=tieSwitch1,Length=0.001,Units=km,switch=T !numEQ 22866
new line.CTR166703 bus1=BMT122357960.3,bus2=BMT172869779.3,Phases=1,LineCode=tieSwitch1,Length=0.001,Units=km,switch=T !numEQ 23147
new line.CTR166710 bus1=BMT157843757.1.2.3,bus2=BMT173910564.1.2.3,Phases=3,LineCode=tieSwitch,Length=0.001,Units=km,switch=T !numEQ 152610
new line.CTR166808 bus1=BMT122360676.3,bus2=BMT163268835.3,Phases=1,LineCode=tieSwitch1,Length=0.001,Units=km,switch=T !numEQ 152642
new line.CTR166815 bus1=BMT163634923.3,bus2=BMT163634926.3,Phases=1,LineCode=tieSwitch1,Length=0.001,Units=km,switch=T !numEQ 59124
new line.CTR166850 bus1=BMT122308715.1.2.3,bus2=BMT170395326.1.2.3,Phases=3,LineCode=tieSwitch,Length=0.001,Units=km,switch=T !numEQ 22533
new line.CTR166864 bus1=BMT153592075.1,bus2=BMT153592242.1,Phases=1,LineCode=tieSwitch1,Length=0.001,Units=km,switch=T !numEQ 117388
new line.CTR166962 bus1=BMT163634613.1,bus2=BMT163634623.1,Phases=1,LineCode=tieSwitch1,Length=0.001,Units=km,switch=T !numEQ 25885
new line.CTR166990 bus1=BMT163636242.3,bus2=BMT163636246.3,Phases=1,LineCode=tieSwitch1,Length=0.001,Units=km,switch=T !numEQ 22924
new line.CTR167053 bus1=BMT163637453.2,bus2=BMT163637455.2,Phases=1,LineCode=tieSwitch1,Length=0.001,Units=km,switch=T !numEQ 151968
new line.CTR167088 bus1=BMT163636718.3,bus2=BMT163637162.3,Phases=1,LineCode=tieSwitch1,Length=0.001,Units=km,switch=T !numEQ 152764
new line.CTR167151 bus1=BMT163634889.2,bus2=BMT163634890.2,Phases=1,LineCode=tieSwitch1,Length=0.001,Units=km,switch=T !numEQ 22358
new line.CTR167165 bus1=BMT163634863.2,bus2=BMT163634864.2,Phases=1,LineCode=tieSwitch1,Length=0.001,Units=km,switch=T !numEQ 23605
new line.CTR167242 bus1=BMT175927993.1.2.3,bus2=BMT175928002.1.2.3,Phases=3,LineCode=tieSwitch,Length=0.001,Units=km,switch=T !numEQ 137591
new line.CTR167501 bus1=BMT122308904.1.2.3,bus2=BMT122314154.1.2.3,Phases=3,LineCode=tieSwitch,Length=0.001,Units=km,switch=T !numEQ 22124
new line.CTR173451 bus1=BMT163636687.2,bus2=BMT163636692.2,Phases=1,LineCode=tieSwitch1,Length=0.001,Units=km,switch=T !numEQ 154890
new line.CTR173472 bus1=BMT163634793.3,bus2=BMT163636071.3,Phases=1,LineCode=tieSwitch1,Length=0.001,Units=km,switch=T !numEQ 127981
new line.CTR17379 bus1=BMT122314966.2,bus2=BMT158038044.2,Phases=1,LineCode=tieSwitch1,Length=0.001,Units=km,switch=T !numEQ 93059
new line.CTR173829 bus1=BMT122356287.1.2.3,bus2=BMT145581573.1.2.3,Phases=3,LineCode=tieSwitch,Length=0.001,Units=km,switch=T !numEQ 22887
new line.CTR173871 bus1=BMT122367802.1.2.3,bus2=BMT150096350.1.2.3,Phases=3,LineCode=tieSwitch,Length=0.001,Units=km,switch=T !numEQ 23436
open line.CTR173871 term=1
new line.CTR154054 bus1=BMT163636655.3,bus2=BMT163637321.3,Phases=1,LineCode=tieSwitch1,Length=0.001,Units=km,switch=T !numEQ 139706
new line.CTR154222 bus1=BMT163634913.1.2.3,bus2=BMT163634914.1.2.3,Phases=3,LineCode=tieSwitch,Length=0.001,Units=km,switch=T !numEQ 22915
new line.CTR154278 bus1=BMT122362657.3,bus2=BMT122362727.3,Phases=1,LineCode=tieSwitch1,Length=0.001,Units=km,switch=T !numEQ 110069
new line.CTR161831 bus1=BMT122356280.1,bus2=BMT122363490.1,Phases=1,LineCode=tieSwitch1,Length=0.001,Units=km,switch=T !numEQ 196508
new line.CTR161852 bus1=BMT122363091.1,bus2=BMT122363112.1,Phases=1,LineCode=tieSwitch1,Length=0.001,Units=km,switch=T !numEQ 154270
new line.CTR161922 bus1=BMT122358086.3,bus2=BMT159550744.3,Phases=1,LineCode=tieSwitch1,Length=0.001,Units=km,switch=T !numEQ 22864
new line.CTR162097 bus1=BMT122360368.3,bus2=BMT122360375.3,Phases=1,LineCode=tieSwitch1,Length=0.001,Units=km,switch=T !numEQ 154699
new line.CTR162111 bus1=BMT122365611.1.2.3,bus2=BMT122365618.1.2.3,Phases=3,LineCode=tieSwitch,Length=0.001,Units=km,switch=T !numEQ 154496
new line.CTR162118 bus1=BMT122365604.1.2.3,bus2=BMT122365632.1.2.3,Phases=3,LineCode=tieSwitch,Length=0.001,Units=km,switch=T !numEQ 154495
new line.CTR162608 bus1=BMT122350764.1.2.3,bus2=BMT148787520.1.2.3,Phases=3,LineCode=tieSwitch,Length=0.001,Units=km,switch=T !numEQ 23308
new line.CTR162720 bus1=BMT149431988.1.2.3,bus2=BMT149432633.1.2.3,Phases=3,LineCode=tieSwitch,Length=0.001,Units=km,switch=T !numEQ 209986
new line.CTR162867 bus1=BMT163636874.2,bus2=BMT163636930.2,Phases=1,LineCode=tieSwitch1,Length=0.001,Units=km,switch=T !numEQ 23490
new line.CTR162881 bus1=BMT163636933.2,bus2=BMT165382411.2,Phases=1,LineCode=tieSwitch1,Length=0.001,Units=km,switch=T !numEQ 209320
new line.CTR162888 bus1=BMT163635004.3,bus2=BMT163635005.3,Phases=1,LineCode=tieSwitch1,Length=0.001,Units=km,switch=T !numEQ 22877
new line.CTR162986 bus1=BMT163636196.3,bus2=BMT163636210.3,Phases=1,LineCode=tieSwitch1,Length=0.001,Units=km,switch=T !numEQ 119674
new line.CTR162993 bus1=BMT122361523.1,bus2=BMT122361670.1,Phases=1,LineCode=tieSwitch1,Length=0.001,Units=km,switch=T !numEQ 121845
new line.CTR163035 bus1=BMT175921345.1.2.3,bus2=BMT176231701.1.2.3,Phases=3,LineCode=tieSwitch,Length=0.001,Units=km,switch=T !numEQ 22129
new line.CTR163406 bus1=BMT157348196.1.2.3,bus2=BMT157348198.1.2.3,Phases=3,LineCode=tieSwitch,Length=0.001,Units=km,switch=T !numEQ 138907
new line.CTR163462 bus1=BMT175928017.1.2.3,bus2=BMT175928018.1.2.3,Phases=3,LineCode=tieSwitch,Length=0.001,Units=km,switch=T !numEQ 116557
new line.CTR163602 bus1=BMT122358380.3,bus2=BMT160126136.3,Phases=1,LineCode=tieSwitch1,Length=0.001,Units=km,switch=T !numEQ 107321
new line.CTR171750 bus1=BMT122306461.1,bus2=BMT170310233.1,Phases=1,LineCode=tieSwitch1,Length=0.001,Units=km,switch=T !numEQ 141544
new line.CTR171827 bus1=BMT163635388.1.2.3,bus2=BMT163635416.1.2.3,Phases=3,LineCode=tieSwitch,Length=0.001,Units=km,switch=T !numEQ 59622
new line.CTR171883 bus1=BMT163635465.2,bus2=BMT163635480.2,Phases=1,LineCode=tieSwitch1,Length=0.001,Units=km,switch=T !numEQ 136261
new line.CTR171897 bus1=BMT163635469.2,bus2=BMT163635473.2,Phases=1,LineCode=tieSwitch1,Length=0.001,Units=km,switch=T !numEQ 23156
new line.CTR171904 bus1=BMT163636220.3,bus2=BMT163636270.3,Phases=1,LineCode=tieSwitch1,Length=0.001,Units=km,switch=T !numEQ 119668
new line.CTR171932 bus1=BMT163635357.1.2.3,bus2=BMT163635633.1.2.3,Phases=3,LineCode=tieSwitch,Length=0.001,Units=km,switch=T !numEQ 22977
new line.CTR171953 bus1=BMT163635383.1.2.3,bus2=BMT163635422.1.2.3,Phases=3,LineCode=tieSwitch,Length=0.001,Units=km,switch=T !numEQ 102953
new line.CTR172023 bus1=BMT149432564.2,bus2=BMT160829189.2,Phases=1,LineCode=tieSwitch1,Length=0.001,Units=km,switch=T !numEQ 153188
new line.CTR172030 bus1=BMT122311522.2,bus2=BMT164847549.2,Phases=1,LineCode=tieSwitch1,Length=0.001,Units=km,switch=T !numEQ 153071
new line.CTR172072 bus1=BMT122314819.3,bus2=BMT122316415.3,Phases=1,LineCode=tieSwitch1,Length=0.001,Units=km,switch=T !numEQ 152201
new line.CTR17260 bus1=BMT122352836.2,bus2=BMT152833841.2,Phases=1,LineCode=tieSwitch1,Length=0.001,Units=km,switch=T !numEQ 22595
new line.CTR172989 bus1=BMT162676046.3,bus2=BMT162676057.3,Phases=1,LineCode=tieSwitch1,Length=0.001,Units=km,switch=T !numEQ 152712
new line.CTR173017 bus1=BMT172856906.1.2.3,bus2=BMT122357064.1.2.3,Phases=3,LineCode=tieSwitch,Length=0.001,Units=km,switch=T !numEQ 155263
new line.CTR173024 bus1=BMT122357155.1.2.3,bus2=BMT3277601.1.2.3,Phases=3,LineCode=tieSwitch,Length=0.001,Units=km,switch=T !numEQ 155109
open line.CTR173024 term=1
new line.CTR173108 bus1=BMT149431771.1.2.3,bus2=BMT149431858.1.2.3,Phases=3,LineCode=tieSwitch,Length=0.001,Units=km,switch=T !numEQ 155058
new line.CTR173129 bus1=BMT122357148.1.2.3,bus2=BMT122357162.1.2.3,Phases=3,LineCode=tieSwitch,Length=0.001,Units=km,switch=T !numEQ 153666
new line.CTR175544 bus1=BMT122311193.1.2.3,bus2=BMT122311207.1.2.3,Phases=3,LineCode=tieSwitch,Length=0.001,Units=km,switch=T !numEQ 22621
new line.CTR175558 bus1=BMT149432210.1,bus2=BMT149432228.1,Phases=1,LineCode=tieSwitch1,Length=0.001,Units=km,switch=T !numEQ 124285
new line.CTR175565 bus1=BMT150102592.1,bus2=BMT167747238.1,Phases=1,LineCode=tieSwitch1,Length=0.001,Units=km,switch=T !numEQ 22433
new line.CTR175579 bus1=BMT175922192.1.2.3,bus2=BMT175922364.1.2.3,Phases=3,LineCode=tieSwitch,Length=0.001,Units=km,switch=T !numEQ 22036
new line.CTR175614 bus1=BMT175922367.1.2.3,bus2=BMT175922368.1.2.3,Phases=3,LineCode=tieSwitch,Length=0.001,Units=km,switch=T !numEQ 22038
new line.CTR175831 bus1=BMT175922372.1.2.3,bus2=BMT175922374.1.2.3,Phases=3,LineCode=tieSwitch,Length=0.001,Units=km,switch=T !numEQ 152902
new line.CTR175936 bus1=BMT122365758.1.2.3,bus2=BMT162680254.1.2.3,Phases=3,LineCode=tieSwitch,Length=0.001,Units=km,switch=T !numEQ 22329
new line.CTR176125 bus1=BMT122308288.1,bus2=BMT122316513.1,Phases=1,LineCode=tieSwitch1,Length=0.001,Units=km,switch=T !numEQ 151771
new line.CTR176174 bus1=BMT175921819.1.2.3,bus2=BMT175922080.1.2.3,Phases=3,LineCode=tieSwitch,Length=0.001,Units=km,switch=T !numEQ 153262
new line.CTR176209 bus1=BMT122356091.1,bus2=BMT122364120.1,Phases=1,LineCode=tieSwitch1,Length=0.001,Units=km,switch=T !numEQ 143443
new line.CTR176244 bus1=BMT122310080.1,bus2=BMT122310115.1,Phases=1,LineCode=tieSwitch1,Length=0.001,Units=km,switch=T !numEQ 152935
new line.CTR16868 bus1=BMT163634479.2,bus2=BMT163636435.2,Phases=1,LineCode=tieSwitch1,Length=0.001,Units=km,switch=T !numEQ 137889
new line.CTR168817 bus1=BMT175921213.1.2.3,bus2=BMT175921561.1.2.3,Phases=3,LineCode=tieSwitch,Length=0.001,Units=km,switch=T !numEQ 23313
new line.CTR169027 bus1=BMT122358240.3,bus2=BMT122360424.3,Phases=1,LineCode=tieSwitch1,Length=0.001,Units=km,switch=T !numEQ 154051
new line.CTR16938 bus1=BMT175921088.1.2.3,bus2=BMT175921089.1.2.3,Phases=3,LineCode=tieSwitch,Length=0.001,Units=km,switch=T !numEQ 136863
new line.CTR177098 bus1=BMT149432076.1.2.3,bus2=BMT170643627.1.2.3,Phases=3,LineCode=tieSwitch,Length=0.001,Units=km,switch=T !numEQ 201231
new line.CTR177371 bus1=BMT122307028.1,bus2=BMT122307056.1,Phases=1,LineCode=tieSwitch1,Length=0.001,Units=km,switch=T !numEQ 152198
new line.CTR177798 bus1=BMT163637442.1,bus2=BMT163637444.1,Phases=1,LineCode=tieSwitch1,Length=0.001,Units=km,switch=T !numEQ 142200
new line.CTR177805 bus1=BMT122314665.1,bus2=BMT122314679.1,Phases=1,LineCode=tieSwitch1,Length=0.001,Units=km,switch=T !numEQ 154870
new line.CTR177812 bus1=BMT149432455.1,bus2=BMT149432482.1,Phases=1,LineCode=tieSwitch1,Length=0.001,Units=km,switch=T !numEQ 142768
new line.CTR177833 bus1=BMT175507499.3,bus2=BMT175507501.3,Phases=1,LineCode=tieSwitch1,Length=0.001,Units=km,switch=T !numEQ 117394
new line.CTR178372 bus1=BMT149431787.1.2.3,bus2=BMT173224441.1.2.3,Phases=3,LineCode=tieSwitch,Length=0.001,Units=km,switch=T !numEQ 22069
new line.CTR17848 bus1=BMT163636432.1.2.3,bus2=BMT163636433.1.2.3,Phases=3,LineCode=tieSwitch,Length=0.001,Units=km,switch=T !numEQ 130940
new line.CTR17855 bus1=BMT122310577.1.2.3,bus2=BMT176452358.1.2.3,Phases=3,LineCode=tieSwitch,Length=0.001,Units=km,switch=T !numEQ 22598
...