2024_89_CemigReconfigurationCases/1_SEsCemig/JFAU07/JFAU07Transformadores.dss
new transformer.1011380 Phases=1,Windings=3,Buses=[BMT163849058.1 BBT106316571.1.0 BBT106316571.0.2],Conns=[wye wye wye],kvs=[12.70 0.12 0.12],kvas=[5.000000000 5.000000000 5.000000000],Taps=[1,1.000000000,1.000000000],%loadloss=2.100000000,%noloadloss=0.700000000
new transformer.1011387 Phases=1,Windings=3,Buses=[BMT165924856.1 BBT108122095.1.0 BBT108122095.0.2],Conns=[wye wye wye],kvs=[12.70 0.12 0.12],kvas=[5.000000000 5.000000000 5.000000000],Taps=[1,1.000000000,1.000000000],%loadloss=2.100000000,%noloadloss=0.700000000
new transformer.1011772 Phases=1,Windings=3,Buses=[BMT122312320.1 BBT110053381.1.0 BBT110053381.0.2],Conns=[wye wye wye],kvs=[12.70 0.12 0.12],kvas=[10.000000000 10.000000000 10.000000000],Taps=[1,1.000000000,1.000000000],%loadloss=1.950000000,%noloadloss=0.450000000
new transformer.1012353 Phases=1,Windings=3,Buses=[BMT174013449.1 BBT108718698.1.0 BBT108718698.0.2],Conns=[wye wye wye],kvs=[12.70 0.12 0.12],kvas=[25.000000000 25.000000000 25.000000000],Taps=[1,1.000000000,1.000000000],%loadloss=1.620000000,%noloadloss=0.360000000
new transformer.1012374 Phases=1,Windings=3,Buses=[BMT149432163.1 BBT110445969.1.0 BBT110445969.0.2],Conns=[wye wye wye],kvs=[12.70 0.12 0.12],kvas=[5.000000000 5.000000000 5.000000000],Taps=[1,1.000000000,1.000000000],%loadloss=2.100000000,%noloadloss=0.700000000
new transformer.1012668 Phases=1,Windings=3,Buses=[BMT122313426.2 BBT108296675.1.0 BBT108296675.0.2],Conns=[wye wye wye],kvs=[12.70 0.12 0.12],kvas=[10.000000000 10.000000000 10.000000000],Taps=[1,1.000000000,1.000000000],%loadloss=1.950000000,%noloadloss=0.450000000
new transformer.1012941 Phases=1,Windings=3,Buses=[BMT160118917.1 BBT106808776.1.0 BBT106808776.0.2],Conns=[wye wye wye],kvs=[12.70 0.12 0.12],kvas=[5.000000000 5.000000000 5.000000000],Taps=[1,1.000000000,1.000000000],%loadloss=2.100000000,%noloadloss=0.700000000
new transformer.1019269 Phases=1,Windings=3,Buses=[BMT170747385.1 BBT91039897.1.0 BBT91039897.0.2],Conns=[wye wye wye],kvs=[12.70 0.12 0.12],kvas=[5.000000000 5.000000000 5.000000000],Taps=[1,1.000000000,1.000000000],%loadloss=2.100000000,%noloadloss=0.700000000
new transformer.1026304 Phases=1,Windings=3,Buses=[BMT154139849.1 BBT119362506.1.0 BBT119362506.0.2],Conns=[wye wye wye],kvs=[12.70 0.12 0.12],kvas=[15.000000000 15.000000000 15.000000000],Taps=[1,1.000000000,1.000000000],%loadloss=1.833000000,%noloadloss=0.466666667
new transformer.1026311 Phases=1,Windings=3,Buses=[BMT154139848.1 BBT119362730.1.0 BBT119362730.0.2],Conns=[wye wye wye],kvs=[12.70 0.12 0.12],kvas=[10.000000000 10.000000000 10.000000000],Taps=[1,1.000000000,1.000000000],%loadloss=1.950000000,%noloadloss=0.450000000
new transformer.1026346 Phases=1,Windings=3,Buses=[BMT154139846.1 BBT119363591.1.0 BBT119363591.0.2],Conns=[wye wye wye],kvs=[12.70 0.12 0.12],kvas=[5.000000000 5.000000000 5.000000000],Taps=[1,1.000000000,1.000000000],%loadloss=2.100000000,%noloadloss=0.700000000
new transformer.1026507 Phases=1,Windings=3,Buses=[BMT169655951.1 BBT94973106.1.0 BBT94973106.0.2],Conns=[wye wye wye],kvs=[12.70 0.12 0.12],kvas=[5.000000000 5.000000000 5.000000000],Taps=[1,1.000000000,1.000000000],%loadloss=2.100000000,%noloadloss=0.700000000
new transformer.1027011 Phases=1,Windings=3,Buses=[BMT162680889.1 BBT95256816.1.0 BBT95256816.0.2],Conns=[wye wye wye],kvs=[12.70 0.12 0.12],kvas=[15.000000000 15.000000000 15.000000000],Taps=[1,1.000000000,1.000000000],%loadloss=1.833000000,%noloadloss=0.466666667
new transformer.1035117 Phases=1,Windings=3,Buses=[BMT149432494.2 BBT111846221.1.0 BBT111846221.0.2],Conns=[wye wye wye],kvs=[12.70 0.12 0.12],kvas=[5.000000000 5.000000000 5.000000000],Taps=[1,1.000000000,1.000000000],%loadloss=2.100000000,%noloadloss=0.700000000
new transformer.1035131 Phases=3,Windings=2,Buses=[BMT154636829.1.2.3 BBT101221537.1.2.3.0],Conns=[delta wye],kvs=[22.0 0.22],kvas=[150.000000000 150.000000000],Taps=[1,1.000000000],%loadloss=1.200000000,%noloadloss=0.300000000
new transformer.1035362 Phases=3,Windings=2,Buses=[BMT176034429.1.2.3 BBT101470205.1.2.3.0],Conns=[delta wye],kvs=[22.0 0.22],kvas=[150.000000000 150.000000000],Taps=[1,1.000000000],%loadloss=1.200000000,%noloadloss=0.300000000
new transformer.1035383 Phases=1,Windings=3,Buses=[BMT172568285.1 BBT109465381.1.0 BBT109465381.0.2],Conns=[wye wye wye],kvs=[12.70 0.12 0.12],kvas=[5.000000000 5.000000000 5.000000000],Taps=[1,1.000000000,1.000000000],%loadloss=2.100000000,%noloadloss=0.700000000
new transformer.1035467 Phases=1,Windings=3,Buses=[BMT133346329.1 BBT108676593.1.0 BBT108676593.0.2],Conns=[wye wye wye],kvs=[12.70 0.12 0.12],kvas=[5.000000000 5.000000000 5.000000000],Taps=[1,1.000000000,1.000000000],%loadloss=2.100000000,%noloadloss=0.700000000
new transformer.1035516 Phases=1,Windings=3,Buses=[BMT174587455.1 BBT108443731.1.0 BBT108443731.0.2],Conns=[wye wye wye],kvs=[12.70 0.12 0.12],kvas=[5.000000000 5.000000000 5.000000000],Taps=[1,1.000000000,1.000000000],%loadloss=2.100000000,%noloadloss=0.700000000
...